!- Darwin Line endings 

Version,
    22.1;                     !- Version Identifier

SimulationControl,
    Yes,                      !- Do Zone Sizing Calculation
    Yes,                      !- Do System Sizing Calculation
    Yes,                      !- Do Plant Sizing Calculation
    No,                       !- Run Simulation for Sizing Periods
    Yes,                      !- Run Simulation for Weather File Run Periods
    No,                       !- Do HVAC Sizing Simulation for Sizing Periods
    1;                        !- Maximum Number of HVAC Sizing Simulation Passes

Building,
    OfficeMedium,             !- Name
    0,                        !- North Axis
    City,                     !- Terrain
    0.04,                     !- Loads Convergence Tolerance Value
    0.2,                      !- Temperature Convergence Tolerance Value
    FullExterior,             !- Solar Distribution
    25,                       !- Maximum Number of Warmup Days
    6;                        !- Minimum Number of Warmup Days

ShadowCalculation,
    PolygonClipping,          !- Shading Calculation Method
    Periodic,                 !- Shading Calculation Update Frequency Method
    30;                       !- Shading Calculation Update Frequency

SurfaceConvectionAlgorithm:Inside,
    TARP;                     !- Algorithm

SurfaceConvectionAlgorithm:Outside,
    TARP;                     !- Algorithm

HeatBalanceAlgorithm,
    ConductionTransferFunction;    !- Algorithm

Timestep,
    4;                        !- Number of Timesteps per Hour

ConvergenceLimits,
    1,                        !- Minimum System Timestep
    20;                       !- Maximum HVAC Iterations

Site:Location,
    Denver-Aurora-Buckley.AFB_CO_USA WMO=724695,    !- Name
    39.72,                    !- Latitude
    -104.75,                  !- Longitude
    -7,                       !- Time Zone
    1726;                     !- Elevation

SizingPeriod:DesignDay,
    Denver-Aurora-Buckley.AFB_CO_USA Ann Htg 99.6% Condns DB,    !- Name
    12,                       !- Month
    21,                       !- Day of Month
    WinterDesignDay,          !- Day Type
    -17.9,                    !- Maximum DryBulb Temperature
    0,                        !- Daily DryBulb Temperature Range
    DefaultMultipliers,       !- DryBulb Temperature Range Modifier Type
    ,                         !- DryBulb Temperature Range Modifier Day Schedule Name
    Wetbulb,                  !- Humidity Condition Type
    -17.9,                    !- Wetbulb or DewPoint at Maximum DryBulb
    ,                         !- Humidity Condition Day Schedule Name
    ,                         !- Humidity Ratio at Maximum DryBulb
    ,                         !- Enthalpy at Maximum DryBulb
    ,                         !- Daily WetBulb Temperature Range
    82237,                    !- Barometric Pressure
    2.5,                      !- Wind Speed
    180,                      !- Wind Direction
    No,                       !- Rain Indicator
    No,                       !- Snow Indicator
    No,                       !- Daylight Saving Time Indicator
    ASHRAEClearSky,           !- Solar Model Indicator
    ,                         !- Beam Solar Day Schedule Name
    ,                         !- Diffuse Solar Day Schedule Name
    ,                         !- ASHRAE Clear Sky Optical Depth for Beam Irradiance taub
    ,                         !- ASHRAE Clear Sky Optical Depth for Diffuse Irradiance taud
    0;                        !- Sky Clearness

SizingPeriod:DesignDay,
    Denver-Aurora-Buckley.AFB_CO_USA Ann Clg .4% Condns DB=>MWB,    !- Name
    7,                        !- Month
    21,                       !- Day of Month
    SummerDesignDay,          !- Day Type
    33.9,                     !- Maximum DryBulb Temperature
    14.8,                     !- Daily DryBulb Temperature Range
    DefaultMultipliers,       !- DryBulb Temperature Range Modifier Type
    ,                         !- DryBulb Temperature Range Modifier Day Schedule Name
    Wetbulb,                  !- Humidity Condition Type
    15,                       !- Wetbulb or DewPoint at Maximum DryBulb
    ,                         !- Humidity Condition Day Schedule Name
    ,                         !- Humidity Ratio at Maximum DryBulb
    ,                         !- Enthalpy at Maximum DryBulb
    ,                         !- Daily WetBulb Temperature Range
    82237,                    !- Barometric Pressure
    3.6,                      !- Wind Speed
    30,                       !- Wind Direction
    No,                       !- Rain Indicator
    No,                       !- Snow Indicator
    No,                       !- Daylight Saving Time Indicator
    ASHRAETau,                !- Solar Model Indicator
    ,                         !- Beam Solar Day Schedule Name
    ,                         !- Diffuse Solar Day Schedule Name
    0.423,                    !- ASHRAE Clear Sky Optical Depth for Beam Irradiance taub
    2.02;                     !- ASHRAE Clear Sky Optical Depth for Diffuse Irradiance taud

RunPeriod,
    RUNPERIOD 1,              !- Name
    1,                        !- Begin Month
    1,                        !- Begin Day of Month
    ,                         !- Begin Year
    12,                       !- End Month
    31,                       !- End Day of Month
    ,                         !- End Year
    Sunday,                   !- Day of Week for Start Day
    No,                       !- Use Weather File Holidays and Special Days
    No,                       !- Use Weather File Daylight Saving Period
    No,                       !- Apply Weekend Holiday Rule
    Yes,                      !- Use Weather File Rain Indicators
    Yes;                      !- Use Weather File Snow Indicators

RunPeriodControl:SpecialDays,
    New Years Day,            !- Name
    January 1,                !- Start Date
    1,                        !- Duration
    Holiday;                  !- Special Day Type

RunPeriodControl:SpecialDays,
    Veterans Day,             !- Name
    November 11,              !- Start Date
    1,                        !- Duration
    Holiday;                  !- Special Day Type

RunPeriodControl:SpecialDays,
    Christmas,                !- Name
    December 25,              !- Start Date
    1,                        !- Duration
    Holiday;                  !- Special Day Type

RunPeriodControl:SpecialDays,
    Independence Day,         !- Name
    July 4,                   !- Start Date
    1,                        !- Duration
    Holiday;                  !- Special Day Type

RunPeriodControl:SpecialDays,
    MLK Day,                  !- Name
    3rd Monday in January,    !- Start Date
    1,                        !- Duration
    Holiday;                  !- Special Day Type

RunPeriodControl:SpecialDays,
    Presidents Day,           !- Name
    3rd Monday in February,    !- Start Date
    1,                        !- Duration
    Holiday;                  !- Special Day Type

RunPeriodControl:SpecialDays,
    Memorial Day,             !- Name
    Last Monday in May,       !- Start Date
    1,                        !- Duration
    Holiday;                  !- Special Day Type

RunPeriodControl:SpecialDays,
    Labor Day,                !- Name
    1st Monday in September,    !- Start Date
    1,                        !- Duration
    Holiday;                  !- Special Day Type

RunPeriodControl:SpecialDays,
    Columbus Day,             !- Name
    2nd Monday in October,    !- Start Date
    1,                        !- Duration
    Holiday;                  !- Special Day Type

RunPeriodControl:SpecialDays,
    Thanksgiving,             !- Name
    4th Thursday in November,    !- Start Date
    1,                        !- Duration
    Holiday;                  !- Special Day Type

RunPeriodControl:DaylightSavingTime,
    2nd Sunday in March,      !- Start Date
    1st Sunday in November;    !- End Date

Site:GroundTemperature:FCfactorMethod,
    7.1,                      !- January Ground Temperature
    3,                        !- February Ground Temperature
    -1,                       !- March Ground Temperature
    0.8,                      !- April Ground Temperature
    -0.2,                     !- May Ground Temperature
    4.8,                      !- June Ground Temperature
    6.1,                      !- July Ground Temperature
    13.7,                     !- August Ground Temperature
    22.2,                     !- September Ground Temperature
    22.7,                     !- October Ground Temperature
    21.7,                     !- November Ground Temperature
    18.5;                     !- December Ground Temperature

Site:WaterMainsTemperature,
    Correlation,              !- Calculation Method
    ,                         !- Temperature Schedule Name
    9.95,                     !- Annual Average Outdoor Air Temperature
    23.7;                     !- Maximum Difference In Monthly Average Outdoor Air Temperatures

ScheduleTypeLimits,
    Any Number;               !- Name

ScheduleTypeLimits,
    Fraction,                 !- Name
    0,                        !- Lower Limit Value
    1,                        !- Upper Limit Value
    Continuous;               !- Numeric Type

ScheduleTypeLimits,
    Temperature,              !- Name
    -60,                      !- Lower Limit Value
    200,                      !- Upper Limit Value
    Continuous;               !- Numeric Type

ScheduleTypeLimits,
    On/Off,                   !- Name
    0,                        !- Lower Limit Value
    1,                        !- Upper Limit Value
    Discrete;                 !- Numeric Type

ScheduleTypeLimits,
    Control Type,             !- Name
    0,                        !- Lower Limit Value
    4,                        !- Upper Limit Value
    Discrete;                 !- Numeric Type

ScheduleTypeLimits,
    Humidity,                 !- Name
    10,                       !- Lower Limit Value
    90,                       !- Upper Limit Value
    Continuous;               !- Numeric Type

ScheduleTypeLimits,
    Number;                   !- Name

Schedule:Compact,
    Exterior_lighting_schedule_a,    !- Name
    fraction,                 !- Schedule Type Limits Name
    Through:12/31,            !- Field 1
    For:AllDays,              !- Field 2
    Until: 06:00,             !- Field 3
    0,                        !- Field 4
    Until: 24:00,             !- Field 5
    1;                        !- Field 6

Schedule:Compact,
    Exterior_lighting_schedule_b,    !- Name
    fraction,                 !- Schedule Type Limits Name
    Through:12/31,            !- Field 1
    For:AllDays,              !- Field 2
    Until: 06:00,             !- Field 3
    0.7,                      !- Field 4
    Until: 24:00,             !- Field 5
    1;                        !- Field 6

Schedule:Compact,
    Exterior_lighting_schedule_a_IECC2015,    !- Name
    fraction,                 !- Schedule Type Limits Name
    Through:12/31,            !- Field 1
    For:Weekdays SummerDesignDay,    !- Field 2
    Until: 07:00,             !- Field 3
    0,                        !- Field 4
    Until: 22:00,             !- Field 5
    1,                        !- Field 6
    Until: 24:00,             !- Field 7
    0,                        !- Field 8
    For:Saturdays,            !- Field 9
    Until: 07:00,             !- Field 10
    0,                        !- Field 11
    Until: 18:00,             !- Field 12
    1,                        !- Field 13
    Until: 24:00,             !- Field 14
    0,                        !- Field 15
    For:AllOtherDays,         !- Field 16
    Until: 24:00,             !- Field 17
    0;                        !- Field 18

Schedule:Compact,
    Exterior_lighting_schedule_b_2016,    !- Name
    fraction,                 !- Schedule Type Limits Name
    Through:12/31,            !- Field 1
    For:AllDays,              !- Field 2
    Until: 06:00,             !- Field 3
    0.5,                      !- Field 4
    Until: 24:00,             !- Field 5
    1;                        !- Field 6

Schedule:Compact,
    Exterior_lighting_schedule_c_2016,    !- Name
    fraction,                 !- Schedule Type Limits Name
    Through:12/31,            !- Field 1
    For:AllDays,              !- Field 2
    Until: 06:00,             !- Field 3
    0.5,                      !- Field 4
    Until: 19:00,             !- Field 5
    1,                        !- Field 6
    Until: 24:00,             !- Field 7
    0.5;                      !- Field 8

Schedule:Compact,
    Hours_of_operation,       !- Name
    on/off,                   !- Schedule Type Limits Name
    Through: 12/31,           !- Field 1
    For: Weekdays SummerDesignDay,    !- Field 2
    Until: 06:00,             !- Field 3
    0.0,                      !- Field 4
    Until: 22:00,             !- Field 5
    1.0,                      !- Field 6
    Until: 24:00,             !- Field 7
    0.0,                      !- Field 8
    For: Saturday WinterDesignDay,    !- Field 9
    Until: 06:00,             !- Field 10
    0.0,                      !- Field 11
    Until: 18:00,             !- Field 12
    1.0,                      !- Field 13
    Until: 24:00,             !- Field 14
    0.0,                      !- Field 15
    For:Sunday Holidays AllOtherDays,    !- Field 16
    Until: 24:00,             !- Field 17
    0.0;                      !- Field 18

Schedule:Compact,
    ALWAYS_ON,                !- Name
    Fraction,                 !- Schedule Type Limits Name
    Through: 12/31,           !- Field 1
    For: AllDays,             !- Field 2
    Until: 24:00,             !- Field 3
    1.0;                      !- Field 4

Schedule:Compact,
    Exterior_Lgt_ALWAYS_ON,    !- Name
    Fraction,                 !- Schedule Type Limits Name
    Through: 12/31,           !- Field 1
    For: AllDays,             !- Field 2
    Until: 24:00,             !- Field 3
    1;                        !- Field 4

Schedule:Compact,
    Exterior_Lgt_189_1,       !- Name
    Fraction,                 !- Schedule Type Limits Name
    Through:12/31,            !- Field 1
    For:Weekdays,             !- Field 2
    Until:  9:00,             !- Field 3
    0.5,                      !- Field 4
    Until: 24:00,             !- Field 5
    1.0,                      !- Field 6
    For:Saturday,             !- Field 7
    Until:  9:00,             !- Field 8
    0.5,                      !- Field 9
    Until: 19:00,             !- Field 10
    1.0,                      !- Field 11
    Until: 24:00,             !- Field 12
    0.5,                      !- Field 13
    For:Sunday Holidays AllOtherDays,    !- Field 14
    Until:  9:00,             !- Field 15
    0.5,                      !- Field 16
    Until: 18:00,             !- Field 17
    1.0,                      !- Field 18
    Until: 24:00,             !- Field 19
    0.5;                      !- Field 20

Schedule:Compact,
    ALWAYS_OFF,               !- Name
    Fraction,                 !- Schedule Type Limits Name
    Through: 12/31,           !- Field 1
    For: AllDays,             !- Field 2
    Until: 24:00,             !- Field 3
    0.0;                      !- Field 4

Schedule:Compact,
    HVACOperationSchd,        !- Name
    on/off,                   !- Schedule Type Limits Name
    Through: 12/31,           !- Field 1
    For: Weekdays SummerDesignDay,    !- Field 2
    Until: 06:00,             !- Field 3
    0.0,                      !- Field 4
    Until: 22:00,             !- Field 5
    1.0,                      !- Field 6
    Until: 24:00,             !- Field 7
    0.0,                      !- Field 8
    For: Saturday WinterDesignDay,    !- Field 9
    Until: 06:00,             !- Field 10
    0.0,                      !- Field 11
    Until: 18:00,             !- Field 12
    1.0,                      !- Field 13
    Until: 24:00,             !- Field 14
    0.0,                      !- Field 15
    For:Sunday Holidays AllOtherDays,    !- Field 16
    Until: 24:00,             !- Field 17
    0.0;                      !- Field 18

SCHEDULE:COMPACT,
    ltg_sch_office,           !- Name
    Fraction,                 !- Schedule Type Limits Name
    Through: 12/31,           !- Field 1
    For: SummerDesignDay,     !- Field 2
    Until: 24:00,             !- Field 3
    1,                        !- Field 4
    For: WinterDesignDay,     !- Field 5
    Until: 24:00,             !- Field 6
    0,                        !- Field 7
    For: Weekdays,            !- Field 8
    Until: 5:00,              !- Field 9
    0.04184,                  !- Field 10
    Until: 7:00,              !- Field 11
    0.08368,                  !- Field 12
    Until: 8:00,              !- Field 13
    0.25105,                  !- Field 14
    Until: 17:00,             !- Field 15
    0.75314,                  !- Field 16
    Until: 18:00,             !- Field 17
    0.41841,                  !- Field 18
    Until: 20:00,             !- Field 19
    0.25105,                  !- Field 20
    Until: 22:00,             !- Field 21
    0.16736,                  !- Field 22
    Until: 23:00,             !- Field 23
    0.08368,                  !- Field 24
    Until: 24:00,             !- Field 25
    0.04184,                  !- Field 26
    For: Saturday,            !- Field 27
    Until: 6:00,              !- Field 28
    0.04184,                  !- Field 29
    Until: 8:00,              !- Field 30
    0.08368,                  !- Field 31
    Until: 12:00,             !- Field 32
    0.25105,                  !- Field 33
    Until: 17:00,             !- Field 34
    0.12552,                  !- Field 35
    Until: 24:00,             !- Field 36
    0.04184,                  !- Field 37
    For: AllOtherDays,        !- Field 38
    Until: 24:00,             !- Field 39
    0.04184;                  !- Field 40

Schedule:Compact,
    BLDG_EQUIP_SCH,           !- Name
    Fraction,                 !- Schedule Type Limits Name
    Through: 12/31,           !- Field 1
    For: Weekdays,            !- Field 2
    Until: 06:00,             !- Field 3
    0.3076738408,             !- Field 4
    Until: 08:00,             !- Field 5
    0.381234796,              !- Field 6
    Until: 12:00,             !- Field 7
    0.857778291,              !- Field 8
    Until: 13:00,             !- Field 9
    0.762469592,              !- Field 10
    Until: 17:00,             !- Field 11
    0.857778291,              !- Field 12
    Until: 18:00,             !- Field 13
    0.476543495,              !- Field 14
    Until: 24:00,             !- Field 15
    0.381234796,              !- Field 16
    For: SummerDesignDay,     !- Field 17
    Until: 24:00,             !- Field 18
    1.0,                      !- Field 19
    For: Saturday,            !- Field 20
    Until: 06:00,             !- Field 21
    0.2307553806,             !- Field 22
    Until: 08:00,             !- Field 23
    0.381234796,              !- Field 24
    Until: 12:00,             !- Field 25
    0.476543495,              !- Field 26
    Until: 17:00,             !- Field 27
    0.3335804465,             !- Field 28
    Until: 19:00,             !- Field 29
    0.285926097,              !- Field 30
    Until: 24:00,             !- Field 31
    0.2307553806,             !- Field 32
    For: WinterDesignDay,     !- Field 33
    Until: 24:00,             !- Field 34
    0.0,                      !- Field 35
    For: Sunday Holidays AllOtherDays,    !- Field 36
    Until: 06:00,             !- Field 37
    0.2307553806,             !- Field 38
    Until: 18:00,             !- Field 39
    0.285926097,              !- Field 40
    Until: 24:00,             !- Field 41
    0.2307553806;             !- Field 42

Schedule:Compact,
    BLDG_OCC_SCH,             !- Name
    Fraction,                 !- Schedule Type Limits Name
    Through: 12/31,           !- Field 1
    For: Weekdays,            !- Field 2
    Until: 06:00,             !- Field 3
    0.0,                      !- Field 4
    Until: 07:00,             !- Field 5
    0.1,                      !- Field 6
    Until: 08:00,             !- Field 7
    0.2,                      !- Field 8
    Until: 12:00,             !- Field 9
    0.95,                     !- Field 10
    Until: 13:00,             !- Field 11
    0.5,                      !- Field 12
    Until: 17:00,             !- Field 13
    0.95,                     !- Field 14
    Until: 18:00,             !- Field 15
    0.3,                      !- Field 16
    Until: 22:00,             !- Field 17
    0.1,                      !- Field 18
    Until: 24:00,             !- Field 19
    0.05,                     !- Field 20
    For: SummerDesignDay,     !- Field 21
    Until: 06:00,             !- Field 22
    0.000000001,              !- Field 23
    Until: 22:00,             !- Field 24
    1.0,                      !- Field 25
    Until: 24:00,             !- Field 26
    0.05,                     !- Field 27
    For: Saturday,            !- Field 28
    Until: 06:00,             !- Field 29
    0.0,                      !- Field 30
    Until: 08:00,             !- Field 31
    0.1,                      !- Field 32
    Until: 12:00,             !- Field 33
    0.3,                      !- Field 34
    Until: 17:00,             !- Field 35
    0.1,                      !- Field 36
    Until: 19:00,             !- Field 37
    0.05,                     !- Field 38
    Until: 24:00,             !- Field 39
    0.0,                      !- Field 40
    For: WinterDesignDay,     !- Field 41
    Until: 24:00,             !- Field 42
    0.0,                      !- Field 43
    For:Sunday Holidays AllOtherDays,    !- Field 44
    Until: 06:00,             !- Field 45
    0.0,                      !- Field 46
    Until: 18:00,             !- Field 47
    0.05,                     !- Field 48
    Until: 24:00,             !- Field 49
    0.0;                      !- Field 50

Schedule:Compact,
    BLDG_OCC_SCH_w_SB,        !- Name
    Fraction,                 !- Schedule Type Limits Name
    Through: 12/31,           !- Field 1
    For: Weekdays,            !- Field 2
    Until: 01:00,             !- Field 3
    0,                        !- Field 4
    Until: 02:00,             !- Field 5
    0,                        !- Field 6
    Until: 03:00,             !- Field 7
    0,                        !- Field 8
    Until: 04:00,             !- Field 9
    0,                        !- Field 10
    Until: 05:00,             !- Field 11
    0,                        !- Field 12
    Until: 06:00,             !- Field 13
    0,                        !- Field 14
    Until: 07:00,             !- Field 15
    0.1,                      !- Field 16
    Until: 08:00,             !- Field 17
    0.2,                      !- Field 18
    Until: 09:00,             !- Field 19
    0.95,                     !- Field 20
    Until: 10:00,             !- Field 21
    0.95,                     !- Field 22
    Until: 11:00,             !- Field 23
    0,                        !- Field 24
    Until: 12:00,             !- Field 25
    0.95,                     !- Field 26
    Until: 13:00,             !- Field 27
    0,                        !- Field 28
    Until: 14:00,             !- Field 29
    0.95,                     !- Field 30
    Until: 15:00,             !- Field 31
    0,                        !- Field 32
    Until: 16:00,             !- Field 33
    0.95,                     !- Field 34
    Until: 17:00,             !- Field 35
    0.95,                     !- Field 36
    Until: 18:00,             !- Field 37
    0.3,                      !- Field 38
    Until: 19:00,             !- Field 39
    0.1,                      !- Field 40
    Until: 20:00,             !- Field 41
    0.1,                      !- Field 42
    Until: 21:00,             !- Field 43
    0.1,                      !- Field 44
    Until: 22:00,             !- Field 45
    0.1,                      !- Field 46
    Until: 23:00,             !- Field 47
    0.05,                     !- Field 48
    Until: 24:00,             !- Field 49
    0.05,                     !- Field 50
    For: Saturday,            !- Field 51
    Until: 01:00,             !- Field 52
    0,                        !- Field 53
    Until: 02:00,             !- Field 54
    0,                        !- Field 55
    Until: 03:00,             !- Field 56
    0,                        !- Field 57
    Until: 04:00,             !- Field 58
    0,                        !- Field 59
    Until: 05:00,             !- Field 60
    0,                        !- Field 61
    Until: 06:00,             !- Field 62
    0,                        !- Field 63
    Until: 07:00,             !- Field 64
    0.1,                      !- Field 65
    Until: 08:00,             !- Field 66
    0.1,                      !- Field 67
    Until: 09:00,             !- Field 68
    0.3,                      !- Field 69
    Until: 10:00,             !- Field 70
    0.3,                      !- Field 71
    Until: 11:00,             !- Field 72
    0,                        !- Field 73
    Until: 12:00,             !- Field 74
    0.3,                      !- Field 75
    Until: 13:00,             !- Field 76
    0,                        !- Field 77
    Until: 14:00,             !- Field 78
    0.1,                      !- Field 79
    Until: 15:00,             !- Field 80
    0,                        !- Field 81
    Until: 16:00,             !- Field 82
    0.1,                      !- Field 83
    Until: 17:00,             !- Field 84
    0.1,                      !- Field 85
    Until: 18:00,             !- Field 86
    0.05,                     !- Field 87
    Until: 19:00,             !- Field 88
    0.05,                     !- Field 89
    Until: 20:00,             !- Field 90
    0,                        !- Field 91
    Until: 21:00,             !- Field 92
    0,                        !- Field 93
    Until: 22:00,             !- Field 94
    0,                        !- Field 95
    Until: 23:00,             !- Field 96
    0,                        !- Field 97
    Until: 24:00,             !- Field 98
    0,                        !- Field 99
    For: SummerDesignDay,     !- Field 100
    Until: 06:00,             !- Field 101
    0.000000001,              !- Field 102
    Until: 22:00,             !- Field 103
    1.0,                      !- Field 104
    Until: 24:00,             !- Field 105
    0.05,                     !- Field 106
    For: WinterDesignDay,     !- Field 107
    Until: 24:00,             !- Field 108
    0.0,                      !- Field 109
    For:Sunday Holidays AllOtherDays,    !- Field 110
    Until: 06:00,             !- Field 111
    0.0,                      !- Field 112
    Until: 18:00,             !- Field 113
    0.05,                     !- Field 114
    Until: 24:00,             !- Field 115
    0.0;                      !- Field 116

Schedule:Compact,
    BLDG_OCC_SCH_wo_SB,       !- Name
    Fraction,                 !- Schedule Type Limits Name
    Through: 12/31,           !- Field 1
    For: Weekdays,            !- Field 2
    Until: 01:00,             !- Field 3
    0,                        !- Field 4
    Until: 02:00,             !- Field 5
    0,                        !- Field 6
    Until: 03:00,             !- Field 7
    0,                        !- Field 8
    Until: 04:00,             !- Field 9
    0,                        !- Field 10
    Until: 05:00,             !- Field 11
    0,                        !- Field 12
    Until: 06:00,             !- Field 13
    0,                        !- Field 14
    Until: 07:00,             !- Field 15
    0.1,                      !- Field 16
    Until: 08:00,             !- Field 17
    0.2,                      !- Field 18
    Until: 09:00,             !- Field 19
    0.95,                     !- Field 20
    Until: 10:00,             !- Field 21
    0.95,                     !- Field 22
    Until: 11:00,             !- Field 23
    0.975703226795432,        !- Field 24
    Until: 12:00,             !- Field 25
    0.95,                     !- Field 26
    Until: 13:00,             !- Field 27
    0.513528014102859,        !- Field 28
    Until: 14:00,             !- Field 29
    0.95,                     !- Field 30
    Until: 15:00,             !- Field 31
    0.975703226795432,        !- Field 32
    Until: 16:00,             !- Field 33
    0.95,                     !- Field 34
    Until: 17:00,             !- Field 35
    0.95,                     !- Field 36
    Until: 18:00,             !- Field 37
    0.3,                      !- Field 38
    Until: 19:00,             !- Field 39
    0.1,                      !- Field 40
    Until: 20:00,             !- Field 41
    0.1,                      !- Field 42
    Until: 21:00,             !- Field 43
    0.1,                      !- Field 44
    Until: 22:00,             !- Field 45
    0.1,                      !- Field 46
    Until: 23:00,             !- Field 47
    0.05,                     !- Field 48
    Until: 24:00,             !- Field 49
    0.05,                     !- Field 50
    For: Saturday,            !- Field 51
    Until: 01:00,             !- Field 52
    0,                        !- Field 53
    Until: 02:00,             !- Field 54
    0,                        !- Field 55
    Until: 03:00,             !- Field 56
    0,                        !- Field 57
    Until: 04:00,             !- Field 58
    0,                        !- Field 59
    Until: 05:00,             !- Field 60
    0,                        !- Field 61
    Until: 06:00,             !- Field 62
    0,                        !- Field 63
    Until: 07:00,             !- Field 64