!-Generator IDFEditor 1.49
!-Option SortedOrder

!-NOTE: All comments with '!-' are ignored by the IDFEditor and are generated automatically.
!-      Use '!' comments if they need to be retained when using the IDFEditor.


!-   ===========  ALL OBJECTS IN CLASS: VERSION ===========

!ShopWithPVandBattery.idf
! Basic file description:  1 story building divided into 4 exterior and one interior conditioned zones and return plenum.
!
! Highlights:              low energy building with photovoltaic roof and electrical storage
!                          Demonstrate the used of battery model for electrical storage
!                          Demonstrates different inverters on different arrays.
!                          Fairly comprehensive model with full HVAC, service water heating, etc.
!
! Simulation Location/Run: OKLAHOMA_CITY_OK_USA TMY2-13967, 2 design days, 1 run period
!
! Location:                Oklahoma City, OK
!
! Design Days:             OKLAHOMA_CITY_OK_USA Heating 99.6% Conditions
!                          OKLAHOMA_CITY_OK_USA Cooling .4% Conditions WB=>MDB
!
! Run Period (Weather File):
!
! Run Control:             Zone and System sizing with weather file run control (no design days run)
!
! Building:  small service repair shop.  open Mon-Fri, 45 hours a week,
!            model developed from 2003CBECS PUBID8=2994
!            Envelope and equipment set to nominally meet ASHRAE Standard 90.1-2004
!
!
! Floor Area:        390.19 m2 (4200 ft2)
! Number of Stories: 1
!
! Zone Description Details:
!
! Internal gains description:     lighting is 15 watts/m2, service equip is 8.3 watts/m2. There are 3 occupants.
!                                  The infiltration is about 0.5 air changes per hour.
!
!
! Detached Shading:               None
! Daylight:                       None
! Natural Ventilation:            None
! Compact Schedules:              Yes
!
! HVAC:                           Single zone, constant volume air systems.
!                                 5 seperate "packages"
!                                 outside air system includes ideal PVT air preconditioners
!
! Zonal Equipment:                Direct Air/Single Duct Uncontrolled.
! Central Air Handling Equipment: no ( but uses central-air-style air handlers for PSZ)
! System Equipment Autosize:      Yes
! Coils:                          DX
! Pumps:                          Pump:VariableSpeed
!
! Results:
! Standard Reports:               All Summary
! Timestep or Hourly Variables:   Timestep
! Time bins Report:               None
! HTML Report:                    Yes
! Environmental Emissions:        Yes
! Utility Tariffs:                Yes, circa 2004, Reliant , TX
Version,
    8.7;                     !- Version Identifier


!-   ===========  ALL OBJECTS IN CLASS: SIMULATIONCONTROL ===========

SimulationControl,
    Yes,                     !- Do Zone Sizing Calculation
    Yes,                     !- Do System Sizing Calculation
    No,                      !- Do Plant Sizing Calculation
    No,                      !- Run Simulation for Sizing Periods
    Yes;                     !- Run Simulation for Weather File Run Periods


!-   ===========  ALL OBJECTS IN CLASS: BUILDING ===========

Building,
    AutoBuilt Model: All,    !- Name
    203.0140,                !- North Axis {deg}
    City,                    !- Terrain
    0.0400,                  !- Loads Convergence Tolerance Value
    0.2000,                  !- Temperature Convergence Tolerance Value {deltaC}
    FullInteriorAndExterior, !- Solar Distribution
    25,                      !- Maximum Number of Warmup Days
    6;                       !- Minimum Number of Warmup Days


!-   ===========  ALL OBJECTS IN CLASS: SHADOWCALCULATION ===========

ShadowCalculation,
    AverageOverDaysInFrequency,  !- Calculation Method
    30;                      !- Calculation Frequency


!-   ===========  ALL OBJECTS IN CLASS: SURFACECONVECTIONALGORITHM:INSIDE ===========

SurfaceConvectionAlgorithm:Inside,
    TARP;                    !- Algorithm


!-   ===========  ALL OBJECTS IN CLASS: SURFACECONVECTIONALGORITHM:OUTSIDE ===========

SurfaceConvectionAlgorithm:Outside,
    DOE-2;                   !- Algorithm


!-   ===========  ALL OBJECTS IN CLASS: HEATBALANCEALGORITHM ===========

HeatBalanceAlgorithm,
    ConductionTransferFunction;  !- Algorithm


!-   ===========  ALL OBJECTS IN CLASS: TIMESTEP ===========

Timestep,
    6;                       !- Number of Timesteps per Hour


!-   ===========  ALL OBJECTS IN CLASS: CONVERGENCELIMITS ===========

ConvergenceLimits,
    5,                       !- Minimum System Timestep {minutes}
    10;                      !- Maximum HVAC Iterations


!-   ===========  ALL OBJECTS IN CLASS: SITE:LOCATION ===========

Site:Location,
    OKLAHOMA_CITY_OK_USA TMY2-13967,  !- Name
    35.4,                    !- Latitude {deg}
    -97.6,                   !- Longitude {deg}
    -6.0,                    !- Time Zone {hr}
    397.0000;                !- Elevation {m}


!-   ===========  ALL OBJECTS IN CLASS: SIZINGPERIOD:WEATHERFILEDAYS ===========

SizingPeriod:WeatherFileDays,
    HDD,                     !- Name
    11,                      !- Begin Month
    20,                      !- Begin Day of Month
    11,                      !- End Month
    20,                      !- End Day of Month
    Monday,                  !- Day of Week for Start Day
    Yes,                     !- Use Weather File Daylight Saving Period
    Yes;                     !- Use Weather File Rain and Snow Indicators

SizingPeriod:WeatherFileDays,
    CDD,                     !- Name
    7,                       !- Begin Month
    21,                      !- Begin Day of Month
    7,                       !- End Month
    21,                      !- End Day of Month
    Monday,                  !- Day of Week for Start Day
    Yes,                     !- Use Weather File Daylight Saving Period
    Yes;                     !- Use Weather File Rain and Snow Indicators

SizingPeriod:WeatherFileDays,
    HDD3,                    !- Name
    12,                      !- Begin Month
    20,                      !- Begin Day of Month
    12,                      !- End Month
    20,                      !- End Day of Month
    Monday,                  !- Day of Week for Start Day
    Yes,                     !- Use Weather File Daylight Saving Period
    Yes;                     !- Use Weather File Rain and Snow Indicators

SizingPeriod:WeatherFileDays,
    CDD2,                    !- Name
    5,                       !- Begin Month
    23,                      !- Begin Day of Month
    5,                       !- End Month
    23,                      !- End Day of Month
    Monday,                  !- Day of Week for Start Day
    Yes,                     !- Use Weather File Daylight Saving Period
    Yes;                     !- Use Weather File Rain and Snow Indicators

SizingPeriod:WeatherFileDays,
    CDD3,                    !- Name
    5,                       !- Begin Month
    30,                      !- Begin Day of Month
    5,                       !- End Month
    30,                      !- End Day of Month
    Monday,                  !- Day of Week for Start Day
    Yes,                     !- Use Weather File Daylight Saving Period
    Yes;                     !- Use Weather File Rain and Snow Indicators


!-   ===========  ALL OBJECTS IN CLASS: RUNPERIOD ===========

RunPeriod,
    ,                        !- Name
    1,                       !- Begin Month
    1,                       !- Begin Day of Month
    12,                      !- End Month
    31,                      !- End Day of Month
    Sunday,                  !- Day of Week for Start Day
    No,                      !- Use Weather File Holidays and Special Days
    No,                      !- Use Weather File Daylight Saving Period
    No,                      !- Apply Weekend Holiday Rule
    Yes,                     !- Use Weather File Rain Indicators
    Yes;                     !- Use Weather File Snow Indicators


!-   ===========  ALL OBJECTS IN CLASS: RUNPERIODCONTROL:SPECIALDAYS ===========

! US National Holidays
RunPeriodControl:SpecialDays,
    New Years Day,           !- Name
    January 1,               !- Start Date
    1,                       !- Duration {days}
    Holiday;                 !- Special Day Type

RunPeriodControl:SpecialDays,
    Veterans Day,            !- Name
    November 11,             !- Start Date
    1,                       !- Duration {days}
    Holiday;                 !- Special Day Type

RunPeriodControl:SpecialDays,
    Christmas,               !- Name
    December 25,             !- Start Date
    1,                       !- Duration {days}
    Holiday;                 !- Special Day Type

RunPeriodControl:SpecialDays,
    Independence Day,        !- Name
    July 4,                  !- Start Date
    1,                       !- Duration {days}
    Holiday;                 !- Special Day Type

RunPeriodControl:SpecialDays,
    MLK Day,                 !- Name
    3rd Monday in January,   !- Start Date
    1,                       !- Duration {days}
    Holiday;                 !- Special Day Type

RunPeriodControl:SpecialDays,
    Presidents Day,          !- Name
    3rd Monday in February,  !- Start Date
    1,                       !- Duration {days}
    Holiday;                 !- Special Day Type

RunPeriodControl:SpecialDays,
    Memorial Day,            !- Name
    Last Monday in May,      !- Start Date
    1,                       !- Duration {days}
    Holiday;                 !- Special Day Type

RunPeriodControl:SpecialDays,
    Labor Day,               !- Name
    1st Monday in September, !- Start Date
    1,                       !- Duration {days}
    Holiday;                 !- Special Day Type

RunPeriodControl:SpecialDays,
    Columbus Day,            !- Name
    2nd Monday in October,   !- Start Date
    1,                       !- Duration {days}
    Holiday;                 !- Special Day Type

RunPeriodControl:SpecialDays,
    Thanksgiving,            !- Name
    4th Thursday in November,!- Start Date
    1,                       !- Duration {days}
    Holiday;                 !- Special Day Type


!-   ===========  ALL OBJECTS IN CLASS: RUNPERIODCONTROL:DAYLIGHTSAVINGTIME ===========

! Daylight Saving Period in US
RunPeriodControl:DaylightSavingTime,
    1st Sunday in April,     !- Start Date
    Last Sunday in October;  !- End Date


!-   ===========  ALL OBJECTS IN CLASS: SITE:GROUNDTEMPERATURE:BUILDINGSURFACE ===========

Site:GroundTemperature:BuildingSurface,
    4.4,                     !- January Ground Temperature {C}
    3.3,                     !- February Ground Temperature {C}
    2.3,                     !- March Ground Temperature {C}
    1.8,                     !- April Ground Temperature {C}
    2,                       !- May Ground Temperature {C}
    4,                       !- June Ground Temperature {C}
    6.8,                     !- July Ground Temperature {C}
    9.3,                     !- August Ground Temperature {C}
    10.1,                    !- September Ground Temperature {C}
    9.6,                     !- October Ground Temperature {C}
    7.8,                     !- November Ground Temperature {C}
    6;                       !- December Ground Temperature {C}


!-   ===========  ALL OBJECTS IN CLASS: SITE:WATERMAINSTEMPERATURE ===========

! Daily Avg, -0.3, 3.3, 10.4, 14.8, 20.6, 23.7, 26.3, 27.9, 22.0, 16.9, 9.7, 5.1
Site:WaterMainsTemperature,
    CORRELATION,             !- Calculation Method
    ,                        !- Temperature Schedule Name
    15.03,                   !- Annual Average Outdoor Air Temperature {C}
    28.20;                   !- Maximum Difference In Monthly Average Outdoor Air Temperatures {deltaC}


!-   ===========  ALL OBJECTS IN CLASS: SCHEDULETYPELIMITS ===========

ScheduleTypeLimits,
    Any Number;              !- Name

ScheduleTypeLimits,
    Fraction,                !- Name
    0.0,                     !- Lower Limit Value
    1.0,                     !- Upper Limit Value
    CONTINUOUS;              !- Numeric Type

ScheduleTypeLimits,
    Temperature,             !- Name
    -60,                     !- Lower Limit Value
    200,                     !- Upper Limit Value
    CONTINUOUS,              !- Numeric Type
    Temperature;             !- Unit Type

ScheduleTypeLimits,
    On/Off,                  !- Name
    0,                       !- Lower Limit Value
    1,                       !- Upper Limit Value
    DISCRETE;                !- Numeric Type

ScheduleTypeLimits,
    Control Type,            !- Name
    0,                       !- Lower Limit Value
    4,                       !- Upper Limit Value
    DISCRETE;                !- Numeric Type

ScheduleTypeLimits,
    Humidity,                !- Name
    10,                      !- Lower Limit Value
    90,                      !- Upper Limit Value
    CONTINUOUS;              !- Numeric Type

ScheduleTypeLimits,
    Number;                  !- Name


!-   ===========  ALL OBJECTS IN CLASS: SCHEDULE:COMPACT ===========

!  PBA:  26: Service
!  PBA+: 45: Repair shop
!  Weekly Hours: 45
!  Open 24 Hours: False
!  Open Weekends: False
!  Days Open: Open Mon-Fri
!  Months Not Open: 0
!  Month Occupied (not always used): 0
!  Schedule valid for the following building IDs
!  ID_2994
Schedule:Compact,
    5_ALWAYS_ON,             !- Name
    On/Off,                  !- Schedule Type Limits Name
    Through: 12/31,          !- Field 1
    For: AllDays,            !- Field 2
    Until: 24:00,            !- Field 3
    1;                       !- Field 4

Schedule:Compact,
    5_WORK_EFF_SCH,          !- Name
    Fraction,                !- Schedule Type Limits Name
    Through: 12/31,          !- Field 1
    For: AllDays,            !- Field 2
    Until: 24:00,            !- Field 3
    0;                       !- Field 4

Schedule:Compact,
    5_AIR_VELO_SCH,          !- Name
    Any Number,              !- Schedule Type Limits Name
    Through: 12/31,          !- Field 1
    For: AllDays,            !- Field 2
    Until: 24:00,            !- Field 3
    0.2;                     !- Field 4

Schedule:Compact,
    5_CLOTHING_SCH,          !- Name
    Any Number,              !- Schedule Type Limits Name
    Through: 04/30,          !- Field 1
    For: AllDays,            !- Field 2
    Until: 24:00,            !- Field 3
    1.1,                     !- Field 4
    Through: 09/30,          !- Field 5
    For: AllDays,            !- Field 6
    Until: 24:00,            !- Field 7
    0.6,                     !- Field 8
    Through: 12/31,          !- Field 9
    For: AllDays,            !- Field 10
    Until: 24:00,            !- Field 11
    1.1;                     !- Field 12

Schedule:Compact,
    5_PlantOnSched,          !- Name
    Any Number,              !- Schedule Type Limits Name
    Through: 12/31,          !- Field 1
    For: AllDays,            !- Field 2
    Until: 24:00,            !- Field 3
    1;                       !- Field 4

Schedule:Compact,
    5_Dual Zone Control Type Sched,  !- Name
    Control Type,            !- Schedule Type Limits Name
    Through: 12/31,          !- Field 1
    For: AllDays,            !- Field 2
    Until: 24:00,            !- Field 3
    4;                       !- Field 4

!  Schedule for hours of operation
!  Assigned 45 hours
Schedule:Compact,
    5_Hours_of_operation,    !- Name
    On/Off,                  !- Schedule Type Limits Name
    Through: 12/31,          !- Field 1
    For: Weekdays SummerDesignDay,  !- Field 2
    Until: 10:00,            !- Field 3
    0,                       !- Field 4
    Until: 19:00,            !- Field 5
    1,                       !- Field 6
    Until: 24:00,            !- Field 7
    0,                       !- Field 8
    For: WeekEnds WinterDesignDay Holidays AllOtherDays,  !- Field 9
    Until: 24:00,            !- Field 10
    0;                       !- Field 11

!  Schedule for HVAC operation
Schedule:Compact,
    5_HVACOperationSchd,     !- Name
    On/Off,                  !- Schedule Type Limits Name
    Through: 12/31,          !- Field 1
    For: Weekdays SummerDesignDay,  !- Field 2
    Until: 10:00,            !- Field 3
    0,                       !- Field 4
    Until: 19:00,            !- Field 5
    1,                       !- Field 6
    Until: 24:00,            !- Field 7
    0,                       !- Field 8
    For: WeekEnds WinterDesignDay Holidays AllOtherDays,  !- Field 9
    Until: 24:00,            !- Field 10
    0;                       !- Field 11

!  Heating Setpoint
Schedule:Compact,
    5_HTGSETP_SCH,           !- Name
    Temperature,             !- Schedule Type Limits Name
    Through: 12/31,          !- Field 1
    For: SummerDesignDay,    !- Field 2
    Until: 24:00,            !- Field 3
    13,                      !- Field 4
    For: WinterDesignDay,    !- Field 5
    Until: 24:00,            !- Field 6
    20,                      !- Field 7
    For: Weekdays,           !- Field 8
    Until: 10:00,            !- Field 9
    13,                      !- Field 10
    Until: 19:00,            !- Field 11
    20,                      !- Field 12
    Until: 24:00,            !- Field 13
    13,                      !- Field 14
    For: WeekEnds Holidays AllOtherDays,  !- Field 15
    Until: 24:00,            !- Field 16
    13;                      !- Field 17

!  Cooling Setpoint
Schedule:Compact,
    5_CLGSETP_SCH,           !- Name
    Temperature,             !- Schedule Type Limits Name
    Through: 12/31,          !- Field 1
    For: SummerDesignDay,    !- Field 2
    Until: 24:00,            !- Field 3
    25,                      !- Field 4
    For: WinterDesignDay,    !- Field 5
    Until: 24:00,            !- Field 6
    33,                      !- Field 7
    For: WeekEnds,           !- Field 8
    Until: 24:00,            !- Field 9
    33,                      !- Field 10
    For: Weekdays Holidays AllOtherDays,  !- Field 11
    Until: 10:00,            !- Field 12
    33,                      !- Field 13
    Until: 19:00,            !- Field 14
    25,                      !- Field 15
    Until: 24:00,            !- Field 16
    33;                      !- Field 17

!  Minimum outside air schedule
!  Gravity Damper
Schedule:Compact,
    5_MinOA_Sched,           !- Name
    On/Off,                  !- Schedule Type Limits Name
    Through: 12/31,          !- Field 1
    For: AllDays,            !- Field 2
    Until: 24:00,            !- Field 3
    1;                       !- Field 4

!  Lighting schedule
!  Lighting Reduced: True
!  Percent Lit When Closed: 0
!  Percent Lit When Open: 100
Schedule:Compact,
    5_BLDG_LIGHT_SCH,        !- Name
    Fraction,                !- Schedule Type Limits Name
    Through: 12/31,          !- Field 1
    For: Weekdays SummerDesignDay,  !- Field 2
    Until: 10:00,            !- Field 3
    0,                       !- Field 4
    Until: 19:00,            !- Field 5
    0.943,                   !- Field 6
    Until: 24:00,            !- Field 7
    0,                       !- Field 8
    For: WeekEnds WinterDesignDay Holidays AllOtherDays,  !- Field 9
    Until: 24:00,            !- Field 10
    0;                       !- Field 11

!  Equipment Schedule
!  Minimum Equipment Percent: 10
!  Maximum Equipment Percent: 95
!  Equipment turned off during off hours: Always
Schedule:Compact,
    5_BLDG_EQUIP_SCH,        !- Name
    Fraction,                !- Schedule Type Limits Name
    Through: 12/31,          !- Field 1
    For: Weekdays SummerDesignDay,  !- Field 2
    Until: 10:00,            !- Field 3
    0.1,                     !- Field 4
    Until: 19:00,            !- Field 5
    0.95,                    !- Field 6
    Until: 24:00,            !- Field 7
    0.1,                     !- Field 8
    For: WeekEnds WinterDesignDay Holidays AllOtherDays,  !- Field 9
    Until: 24:00,            !- Field 10
    0.1;                     !- Field 11

!  Occupancy Schedule
!  Minimum Occupancy Percent: 0
!  Maximum Occupancy Percent: 95
Schedule:Compact,
    5_BLDG_OCC_SCH,          !- Name
    Fraction,                !- Schedule Type Limits Name
    Through: 12/31,          !- Field 1
    For: Weekdays SummerDesignDay,  !- Field 2
    Until: 10:00,            !- Field 3
    0,                       !- Field 4
    Until: 12:00,            !- Field 5
    0.95,                    !- Field 6
    Until: 13:00,            !- Field 7
    0.5,                     !- Field 8
    Until: 19:00,            !- Field 9
    0.95,                    !- Field 10
    Until: 24:00,            !- Field 11
    0,                       !- Field 12
    For: WeekEnds WinterDesignDay Holidays AllOtherDays,  !- Field 13
    Until: 24:00,            !- Field 14
    0;                       !- Field 15

!  Infiltration Schedule
!  Infiltration Percent w/o HVAC: 100
!  Infiltration Percent w/HVAC: 100
Schedule:Compact,
    5_INFIL_SCH,             !- Name
    Fraction,                !- Schedule Type Limits Name
    Through: 12/31,          !- Field 1
    For: AllDays,            !- Field 2
    Until: 24:00,            !- Field 3
    1;                       !- Field 4

!  Activity Schedule
Schedule:Compact,
    5_ACTIVITY_SCH,          !- Name
    Any Number,              !- Schedule Type Limits Name
    Through: 12/31,          !- Field 1
    For: AllDays,            !- Field 2
    Until: 24:00,            !- Field 3
    140;                     !- Field 4

Schedule:Compact,
    5_ZN_1_FLR_1_SEC_1SHW_DEFAULT Latent fract sched,  !- Name
    Fraction,                !- Schedule Type Limits Name
    Through: 12/31,          !- Field 1
    For: AllDays,            !- Field 2
    Until: 24:00,            !- Field 3
    0.05;                    !- Field 4

Schedule:Compact,
    5_ZN_1_FLR_1_SEC_1SHW_DEFAULT Sensible fract sched,  !- Name
    Fraction,                !- Schedule Type Limits Name
    Through: 12/31,          !- Field 1
    For: AllDays,            !- Field 2
    Until: 24:00,            !- Field 3
    0.2;                     !- Field 4

Schedule:Compact,
    5_ZN_1_FLR_1_SEC_1SHW_DEFAULT Temp Sched,  !- Name
    Temperature,             !- Schedule Type Limits Name
    Through: 12/31,          !- Field 1
    For: AllDays,            !- Field 2
    Until: 24:00,            !- Field 3
    40;                      !- Field 4

Schedule:Compact,
    5_ZN_1_FLR_1_SEC_1SHW_DEFAULTHot Supply Temp Sched,  !- Name
    Temperature,             !- Schedule Type Limits Name
    Through: 12/31,          !- Field 1
    For: AllDays,            !- Field 2
    Until: 24:00,            !- Field 3
    55;                      !- Field 4

Schedule:Compact,
    5_ZN_1_FLR_1_SEC_2SHW_DEFAULT Latent fract sched,  !- Name
    Fraction,                !- Schedule Type Limits Name
    Through: 12/31,          !- Field 1
    For: AllDays,            !- Field 2
    Until: 24:00,            !- Field 3
    0.05;                    !- Field 4

Schedule:Compact,
    5_ZN_1_FLR_1_SEC_2SHW_DEFAULT Sensible fract sched,  !- Name
    Fraction,                !- Schedule Type Limits Name
    Through: 12/31,          !- Field 1
    For: AllDays,            !- Field 2
    Until: 24:00,            !- Field 3
    0.2;                     !- Field 4

Schedule:Compact,
    5_ZN_1_FLR_1_SEC_2SHW_DEFAULT Temp Sched,  !- Name
    Temperature,             !- Schedule Type Limits Name
    Through: 12/31,          !- Field 1
    For: AllDays,            !- Field 2
    Until: 24:00,            !- Field 3
    40;                      !- Field 4

Schedule:Compact,
    5_ZN_1_FLR_1_SEC_2SHW_DEFAULTHot Supply Temp Sched,  !- Name
    Temperature,             !- Schedule Type Limits Name
    Through: 12/31,          !- Field 1
    For: AllDays,            !- Field 2
    Until: 24:00,            !- Field 3
    55;                      !- Field 4

Schedule:Compact,
    5_ZN_1_FLR_1_SEC_3SHW_DEFAULT Latent fract sched,  !- Name
    Fraction,                !- Schedule Type Limits Name
    Through: 12/31,          !- Field 1
    For: AllDays,            !- Field 2
    Until: 24:00,            !- Field 3
    0.05;                    !- Field 4

Schedule:Compact,
    5_ZN_1_FLR_1_SEC_3SHW_DEFAULT Sensible fract sched,  !- Name
    Fraction,                !- Schedule Type Limits Name
    Through: 12/31,          !- Field 1
    For: AllDays,            !- Field 2
    Until: 24:00,            !- Field 3
    0.2;                     !- Field 4

Schedule:Compact,
    5_ZN_1_FLR_1_SEC_3SHW_DEFAULT Temp Sched,  !- Name
    Temperature,             !- Schedule Type Limits Name
    Through: 12/31,          !- Field 1
    For: AllDays,            !- Field 2
    Until: 24:00,            !- Field 3
    40;                      !- Field 4

Schedule:Compact,
    5_ZN_1_FLR_1_SEC_3SHW_DEFAULTHot Supply Temp Sched,  !- Name
    Temperature,             !- Schedule Type Limits Name
    Through: 12/31,          !- Field 1
    For: AllDays,            !- Field 2
    Until: 24:00,            !- Field 3
    55;                      !- Field 4

Schedule:Compact,
    5_ZN_1_FLR_1_SEC_4SHW_DEFAULT Latent fract sched,  !- Name
    Fraction,                !- Schedule Type Limits Name
    Through: 12/31,          !- Field 1
    For: AllDays,            !- Field 2
    Until: 24:00,            !- Field 3
    0.05;                    !- Field 4

Schedule:Compact,
    5_ZN_1_FLR_1_SEC_4SHW_DEFAULT Sensible fract sched,  !- Name
    Fraction,                !- Schedule Type Limits Name
    Through: 12/31,          !- Field 1
    For: AllDays,            !- Field 2
    Until: 24:00,            !- Field 3
    0.2;                     !- Field 4

Schedule:Compact,
    5_ZN_1_FLR_1_SEC_4SHW_DEFAULT Temp Sched,  !- Name
    Temperature,             !- Schedule Type Limits Name
    Through: 12/31,          !- Field 1
    For: AllDays,            !- Field 2
    Until: 24:00,            !- Field 3
    40;                      !- Field 4

Schedule:Compact,
    5_ZN_1_FLR_1_SEC_4SHW_DEFAULTHot Supply Temp Sched,  !- Name
    Temperature,             !- Schedule Type Limits Name
    Through: 12/31,          !- Field 1
    For: AllDays,            !- Field 2
    Until: 24:00,            !- Field 3
    55;                      !- Field 4

Schedule:Compact,
    5_ZN_1_FLR_1_SEC_5SHW_DEFAULT Latent fract sched,  !- Name
    Fraction,                !- Schedule Type Limits Name
    Through: 12/31,          !- Field 1
    For: AllDays,            !- Field 2
    Until: 24:00,            !- Field 3
    0.05;                    !- Field 4

Schedule:Compact,
    5_ZN_1_FLR_1_SEC_5SHW_DEFAULT Sensible fract sched,  !- Name
    Fraction,                !- Schedule Type Limits Name
    Through: 12/31,          !- Field 1
    For: AllDays,            !- Field 2
    Until: 24:00,            !- Field 3
    0.2;                     !- Field 4

Schedule:Compact,
    5_ZN_1_FLR_1_SEC_5SHW_DEFAULT Temp Sched,  !- Name
    Temperature,             !- Schedule Type Limits Name
    Through: 12/31,          !- Field 1
    For: AllDays,            !- Field 2
    Until: 24:00,            !- Field 3
    40;                      !- Field 4

Schedule:Compact,
    5_ZN_1_FLR_1_SEC_5SHW_DEFAULTHot Supply Temp Sched,  !- Name
    Temperature,             !- Schedule Type Limits Name
    Through: 12/31,          !- Field 1
    For: AllDays,            !- Field 2
    Until: 24:00,            !- Field 3
    55;                      !- Field 4

Schedule:Compact,
    5_SHWSys1-Loop-Temp-Schedule,  !- Name
    Temperature,             !- Schedule Type Limits Name
    Through: 12/31,          !- Field 1
    For: AllDays,            !- Field 2
    Until: 24:00,            !- Field 3
    55;                      !- Field 4

Schedule:Compact,
    5_SHWSys1 Water Heater Setpoint Temperature Schedule,  !- Name
    Temperature,             !- Schedule Type Limits Name
    Through: 12/31,          !- Field 1
    For: AllDays,            !- Field 2
    Until: 24:00,            !- Field 3
    60.0;                    !- Field 4

Schedule:Compact,
    5_SHWSys1 Water Heater Ambient Temperature Schedule,  !- Name
    Temperature,             !- Schedule Type Limits Name
    Through: 12/31,          !- Field 1
    For: AllDays,            !- Field 2
    Until: 24:00,            !- Field 3
    22.0;                    !- Field 4

Schedule:Compact,
    5_ReliantEnergySeasonSched,  !- Name
    Number,                  !- Schedule Type Limits Name
    Through: 4/30,           !- Field 1
    For: AllDays,            !- Field 2
    Until: 24:00,            !- Field 3
    1,                       !- Field 4
    Through: 10/31,          !- Field 5
    For: AllDays,            !- Field 6
    Until: 24:00,            !- Field 7
    3,                       !- Field 8
    Through: 12/31,          !- Field 9
    For: AllDays,            !- Field 10
    Until: 24:00,            !- Field 11
    1;                       !- Field 12

Schedule:Compact,
    5_VentingSched,          !- Name
    Fraction,                !- Schedule Type Limits Name
    Through: 6/30,           !- Field 1
    For: AllDays,            !- Field 2
    Until: 24:00,            !- Field 3
    0,                       !- Field 4
    Through: 9/30,           !- Field 5
    For: AllDays,            !- Field 6
    Until: 24:00,            !- Field 7
    1,                       !- Field 8
    Through: 12/31,          !- Field 9
    For: AllDays,            !- Field 10
    Until: 24:00,            !- Field 11
    0;                       !- Field 12


!-   ===========  ALL OBJECTS IN CLASS: MATERIAL ===========

Material,
    Roof Membrane,           !- Name
    VeryRough,               !- Roughness
    0.0095,                  !- Thickness {m}
    0.1600,                  !- Conductivity {W/m-K}