!-Generator IDFEditor 1.49
!-Option SortedOrder
!-NOTE: All comments with '!-' are ignored by the IDFEditor and are generated automatically.
!-      Use '!' comments if they need to be retained when using the IDFEditor.
!-   ===========  ALL OBJECTS IN CLASS: VERSION ===========
! RefBldgMidriseApartmentNew2004_Chicago.idf
!
! This example file is based on Version 1.3_5.0 and was transitioned to Version 6.0 using the transition utility
!
! DOE Commercial Reference Building
! Midrise Apartment building, new construction 90.1-2004
! Version 1.3_5.0
! EnergyPlus Version 6.0
! ASHRAE Standards 90.1-2004 and 62-1999
!
! Description:  Four story apartment building, 31 apartments plus office
! Form:         Area = 3,135 m2 (33,742 ft2); Number of Stories = 4; Shape = rectangle; Aspect ratio = 2.74
! Envelope:     Envelope thermal properties vary with climate according to ASHRAE Standard 90.1-2004 residential.
!               Opaque constructions: Steel frame wall; Insulation entirely above deck; slab-on-grade floor
!               Windows: window-to-wall ratio = 15.0%,
!               Infiltration in perimeter zones only
!                            = 0.4 cfm/ft2 above grade wall area at 0.3 in wc (75 Pa) adjusted to 0.016 in wc (4 Pa).
!                              Office: 25% of full value when ventilation system on.
! HVAC:         Split system units in each apartment, office; DX cooling and gas furnace
!               Economizer per 90.1-2004 for office system only
!
! Int. gains:   W/m2 (W/ft2)  lights        elec plug     gas plug
!               Apartments    3.88 (0.36)   5.38 (0.50)   0
!               Office        10.8 (1.0)    12.9 (1.20)   0
!               Corridor      5.38 (0.5)    0             0
! Elevators:    1 @ 20 HP, 91% motor efficiency
!
! Detached Shading:               None
! Daylight:                       None
! Natural Ventilation:            None
! Zonal Equipment:                ZoneHVAC:UnitHeater (corridor zones))
! Air Primary Loops:              SPLITSYSTEMAC:1; SPLITSYSTEMAC:2;...
! Plant Loops:                    SHWSys1
! System Equipment Autosize:      Yes
! Purchased Cooling:              None
! Purchased Heating:              None
! Coils:                          Coil:Cooling:DX:SingleSpeed; Coil:Heating:Fuel (apartment zones)
!                                 Coil:Heating:Electric (corridor zones)
! Pumps:                          None
! Boilers:                        None
! Chillers:                       None
!***** NOTICE *****
!***** The Reference Buildings were prepared as an account of work sponsored by an *****
!***** agency of the United States government. Neither the United States *****
!***** government nor any agency thereof, nor any of their employees, makes *****
!***** any warranty, express or implied, or assumes any legal liability or *****
!***** responsibility for the accuracy, completeness, or usefulness of any *****
!***** information, apparatus, product, or process disclosed, or represents *****
!***** that its use would not infringe privately owned rights. Reference *****
!***** herein to any specific commercial product, process, or service by *****
!***** trade name, trademark, manufacturer, or otherwise does not necessarily *****
!***** constitute or imply its endorsement, recommendation, or favoring by *****
!***** the United States government or any agency thereof. The views and *****
!***** opinions of authors expressed herein do not necessarily state or *****
!***** reflect those of the United States government or any agency thereof. *****
!***** Access to and use of the Reference Buildings imposes the following obligations *****
!***** on the user. The user agrees to credit DOE, NREL, PNNL, and LBNL in *****
!***** any publication(s) that that result from the use of Reference Buildings. *****
!***** However, the names of DOE/NREL/PNNL/LBNL may not be used in any *****
!***** advertising or publicity that implies endorsement or promotion of any *****
!***** products, services or commercial entities. *****
! Reference citation for the Commercial Reference Buildings:
! Deru, M.; Field, K.; Studer, D.; Benne, K.; Griffith, B.; Torcellini, P;
! Halverson, M.; Winiarski, D.; Liu, B.; Rosenberg, M.; Huang, J.;
! Yazdanian, M.; Crawley, D. (2010).
! U.S. Department of Energy Commercial Reference Building Models of the National Building Stock.
! Washington, DC: U.S. Department of Energy, Energy Efficiency and
! Renewable Energy, Office of Building Technologies.
! ***GENERAL SIMULATION PARAMETERS***
! Number of Zones: 27

  Version,24.2;

!-   ===========  ALL OBJECTS IN CLASS: SIMULATIONCONTROL ===========

  SimulationControl,
    YES,                     !- Do Zone Sizing Calculation
    YES,                     !- Do System Sizing Calculation
    YES,                     !- Do Plant Sizing Calculation
    No,                      !- Run Simulation for Sizing Periods
    Yes,                     !- Run Simulation for Weather File Run Periods
    Yes,                     !- Do HVAC Sizing Simulation for Sizing Periods
    1;                       !- Maximum Number of HVAC Sizing Simulation Passes

!-   ===========  ALL OBJECTS IN CLASS: BUILDING ===========

  Building,
    Ref Bldg Midrise Apartment New2004_v1.3_5.0,  !- Name
    0.0000,                  !- North Axis {deg}
    City,                    !- Terrain
    0.0400,                  !- Loads Convergence Tolerance Value {W}
    0.2000,                  !- Temperature Convergence Tolerance Value {deltaC}
    FullInteriorAndExterior, !- Solar Distribution
    25,                      !- Maximum Number of Warmup Days
    6;                       !- Minimum Number of Warmup Days

!-   ===========  ALL OBJECTS IN CLASS: SHADOWCALCULATION ===========

  ShadowCalculation,
    PolygonClipping,         !- Shading Calculation Method
    Periodic,                !- Shading Calculation Update Frequency Method
    7,                       !- Shading Calculation Update Frequency
    15000;                   !- Maximum Figures in Shadow Overlap Calculations

!-   ===========  ALL OBJECTS IN CLASS: SURFACECONVECTIONALGORITHM:INSIDE ===========
! ***MISC SIMULATION PARAMETERS***

  SurfaceConvectionAlgorithm:Inside,TARP;

!-   ===========  ALL OBJECTS IN CLASS: SURFACECONVECTIONALGORITHM:OUTSIDE ===========

  SurfaceConvectionAlgorithm:Outside,DOE-2;

!-   ===========  ALL OBJECTS IN CLASS: HEATBALANCEALGORITHM ===========

  HeatBalanceAlgorithm,ConductionTransferFunction,200.0000;

!-   ===========  ALL OBJECTS IN CLASS: ZONEAIRHEATBALANCEALGORITHM ===========

  ZoneAirHeatBalanceAlgorithm,
    AnalyticalSolution,      !- Algorithm
    No;                      !- Do Space Heat Balance for Sizing

!-   ===========  ALL OBJECTS IN CLASS: TIMESTEP ===========

  Timestep,6;

!-   ===========  ALL OBJECTS IN CLASS: CONVERGENCELIMITS ===========

  ConvergenceLimits,
    2,                       !- Minimum System Timestep {minutes}
    25;                      !- Maximum HVAC Iterations

!-   ===========  ALL OBJECTS IN CLASS: SITE:LOCATION ===========
! WeatherFileName=USA_IL_Chicago-OHare_TMY2.epw

  Site:Location,
    USA IL-CHICAGO-OHARE,    !- Name
    41.77,                   !- Latitude {deg}
    -87.75,                  !- Longitude {deg}
    -6.00,                   !- Time Zone {hr}
    190;                     !- Elevation {m}

!-   ===========  ALL OBJECTS IN CLASS: SIZINGPERIOD:WEATHERFILEDAYS ===========

  SizingPeriod:WeatherFileDays,
    HDD,                     !- Name
    11,                      !- Begin Month
    20,                      !- Begin Day of Month
    11,                      !- End Month
    20,                      !- End Day of Month
    Monday,                  !- Day of Week for Start Day
    Yes,                     !- Use Weather File Daylight Saving Period
    Yes;                     !- Use Weather File Rain and Snow Indicators

  SizingPeriod:WeatherFileDays,
    CDD,                     !- Name
    7,                       !- Begin Month
    21,                      !- Begin Day of Month
    7,                       !- End Month
    21,                      !- End Day of Month
    Monday,                  !- Day of Week for Start Day
    Yes,                     !- Use Weather File Daylight Saving Period
    Yes;                     !- Use Weather File Rain and Snow Indicators

  SizingPeriod:WeatherFileDays,
    HDD3,                    !- Name
    12,                      !- Begin Month
    20,                      !- Begin Day of Month
    12,                      !- End Month
    20,                      !- End Day of Month
    Monday,                  !- Day of Week for Start Day
    Yes,                     !- Use Weather File Daylight Saving Period
    Yes;                     !- Use Weather File Rain and Snow Indicators

  SizingPeriod:WeatherFileDays,
    CDD2,                    !- Name
    5,                       !- Begin Month
    23,                      !- Begin Day of Month
    5,                       !- End Month
    23,                      !- End Day of Month
    Monday,                  !- Day of Week for Start Day
    Yes,                     !- Use Weather File Daylight Saving Period
    Yes;                     !- Use Weather File Rain and Snow Indicators

  SizingPeriod:WeatherFileDays,
    CDD3,                    !- Name
    5,                       !- Begin Month
    30,                      !- Begin Day of Month
    5,                       !- End Month
    30,                      !- End Day of Month
    Monday,                  !- Day of Week for Start Day
    Yes,                     !- Use Weather File Daylight Saving Period
    Yes;                     !- Use Weather File Rain and Snow Indicators

!-   ===========  ALL OBJECTS IN CLASS: RUNPERIOD ===========

  RunPeriod,
    RUNPERIOD 1,             !- Name
    1,                       !- Begin Month
    1,                       !- Begin Day of Month
    ,                        !- Begin Year
    12,                      !- End Month
    31,                      !- End Day of Month
    ,                        !- End Year
    Sunday,                  !- Day of Week for Start Day
    No,                      !- Use Weather File Holidays and Special Days
    No,                      !- Use Weather File Daylight Saving Period
    No,                      !- Apply Weekend Holiday Rule
    Yes,                     !- Use Weather File Rain Indicators
    Yes,                     !- Use Weather File Snow Indicators
    ;                        !- Treat Weather as Actual

!-   ===========  ALL OBJECTS IN CLASS: RUNPERIODCONTROL:SPECIALDAYS ===========

  RunPeriodControl:SpecialDays,
    New Years Day,           !- Name
    January 1,               !- Start Date
    1,                       !- Duration {days}
    Holiday;                 !- Special Day Type

  RunPeriodControl:SpecialDays,
    Veterans Day,            !- Name
    November 11,             !- Start Date
    1,                       !- Duration {days}
    Holiday;                 !- Special Day Type

  RunPeriodControl:SpecialDays,
    Christmas,               !- Name
    December 25,             !- Start Date
    1,                       !- Duration {days}
    Holiday;                 !- Special Day Type

  RunPeriodControl:SpecialDays,
    Independence Day,        !- Name
    July 4,                  !- Start Date
    1,                       !- Duration {days}
    Holiday;                 !- Special Day Type

  RunPeriodControl:SpecialDays,
    MLK Day,                 !- Name
    3rd Monday in January,   !- Start Date
    1,                       !- Duration {days}
    Holiday;                 !- Special Day Type

  RunPeriodControl:SpecialDays,
    Presidents Day,          !- Name
    3rd Monday in February,  !- Start Date
    1,                       !- Duration {days}
    Holiday;                 !- Special Day Type

  RunPeriodControl:SpecialDays,
    Memorial Day,            !- Name
    Last Monday in May,      !- Start Date
    1,                       !- Duration {days}
    Holiday;                 !- Special Day Type

  RunPeriodControl:SpecialDays,
    Labor Day,               !- Name
    1st Monday in September, !- Start Date
    1,                       !- Duration {days}
    Holiday;                 !- Special Day Type

  RunPeriodControl:SpecialDays,
    Columbus Day,            !- Name
    2nd Monday in October,   !- Start Date
    1,                       !- Duration {days}
    Holiday;                 !- Special Day Type

  RunPeriodControl:SpecialDays,
    Thanksgiving,            !- Name
    4th Thursday in November,!- Start Date
    1,                       !- Duration {days}
    Holiday;                 !- Special Day Type

!-   ===========  ALL OBJECTS IN CLASS: RUNPERIODCONTROL:DAYLIGHTSAVINGTIME ===========
! ***HOLIDAYS & DAYLIGHT SAVINGS***

  RunPeriodControl:DaylightSavingTime,
    2nd Sunday in March,     !- Start Date
    1st Sunday in November;  !- End Date

!-   ===========  ALL OBJECTS IN CLASS: SITE:GROUNDTEMPERATURE:BUILDINGSURFACE ===========

  Site:GroundTemperature:BuildingSurface,4.4,3.3,2.3,1.8,2,4,6.8,9.3,10.1,9.6,7.8,6;

!-   ===========  ALL OBJECTS IN CLASS: SITE:WATERMAINSTEMPERATURE ===========

  Site:WaterMainsTemperature,
    CORRELATION,             !- Calculation Method
    ,                        !- Temperature Schedule Name
    9.69,                    !- Annual Average Outdoor Air Temperature {C}
    28.10;                   !- Maximum Difference In Monthly Average Outdoor Air Temperatures {deltaC}

!-   ===========  ALL OBJECTS IN CLASS: SCHEDULETYPELIMITS ===========
! ***SCHEDULE TYPES***

  ScheduleTypeLimits,
    Any Number;              !- Name

  ScheduleTypeLimits,
    Fraction,                !- Name
    0.0,                     !- Lower Limit Value
    1.0,                     !- Upper Limit Value
    CONTINUOUS;              !- Numeric Type

  ScheduleTypeLimits,
    Temperature,             !- Name
    -60,                     !- Lower Limit Value
    200,                     !- Upper Limit Value
    CONTINUOUS;              !- Numeric Type

  ScheduleTypeLimits,
    On/Off,                  !- Name
    0,                       !- Lower Limit Value
    1,                       !- Upper Limit Value
    DISCRETE;                !- Numeric Type

  ScheduleTypeLimits,
    Control Type,            !- Name
    0,                       !- Lower Limit Value
    4,                       !- Upper Limit Value
    DISCRETE;                !- Numeric Type

  ScheduleTypeLimits,
    Humidity,                !- Name
    10,                      !- Lower Limit Value
    90,                      !- Upper Limit Value
    CONTINUOUS;              !- Numeric Type

  ScheduleTypeLimits,
    Number;                  !- Name

!-   ===========  ALL OBJECTS IN CLASS: SCHEDULE:COMPACT ===========
! ***ALWAYS ON SCHEDULE***

  Schedule:Compact,
    16_ALWAYS_ON,            !- Name
    On/Off,                  !- Schedule Type Limits Name
    Through: 12/31,          !- Field 1
    For: AllDays,            !- Field 2
    Until: 24:00,1;          !- Field 3

! ***INTERNAL GAINS SCHEDULES***

  Schedule:Compact,
    16_BLDG_ELEVATORS,       !- Name
    Fraction,                !- Schedule Type Limits Name
    Through: 12/31,          !- Field 1
    For: AllDays,            !- Field 2
    Until: 04:00,0.05,       !- Field 3
    Until: 05:00,0.10,       !- Field 5
    Until: 06:00,0.20,       !- Field 7
    Until: 07:00,0.40,       !- Field 9
    Until: 09:00,0.50,       !- Field 11
    Until: 10:00,0.35,       !- Field 13
    Until: 16:00,0.15,       !- Field 15
    Until: 17:00,0.35,       !- Field 17
    Until: 19:00,0.50,       !- Field 19
    Until: 21:00,0.40,       !- Field 21
    Until: 22:00,0.30,       !- Field 23
    Until: 23:00,0.20,       !- Field 25
    Until: 24:00,0.10;       !- Field 27

  Schedule:Compact,
    16_INFIL_SCH,            !- Name
    Fraction,                !- Schedule Type Limits Name
    Through: 12/31,          !- Field 1
    For: AllDays,            !- Field 2
    Until: 24:00,1;          !- Field 3

  Schedule:Compact,
    16_OFFICE_INFIL_SCH,     !- Name
    Fraction,                !- Schedule Type Limits Name
    Through: 12/31,          !- Field 1
    For: Weekdays,           !- Field 2
    Until: 8:00,1.0,         !- Field 3
    Until: 17:00,0.25,       !- Field 5
    Until: 24:00,1.0,        !- Field 7
    For AllOtherDays,        !- Field 9
    Until: 24:00,1.0;        !- Field 10

  Schedule:Compact,
    16_APT_OCC_SCH,          !- Name
    Fraction,                !- Schedule Type Limits Name
    Through: 12/31,          !- Field 1
    For: AllDays,            !- Field 2
    Until: 7:00,1.0,         !- Field 3
    Until: 8:00,0.85,        !- Field 5
    Until: 9:00,0.39,        !- Field 7
    Until: 16:00,0.25,       !- Field 9
    Until: 17:00,0.3,        !- Field 11
    Until: 18:00,0.52,       !- Field 13
    Until: 21:00,0.87,       !- Field 15
    Until: 24:00,1.0;        !- Field 17

  Schedule:Compact,
    16_OFF_OCC_SCH,          !- Name
    Fraction,                !- Schedule Type Limits Name
    Through: 12/31,          !- Field 1
    For: Weekdays SummerDesignDay WinterDesignDay, !- Field 2
    Until: 8:00,0.0,         !- Field 3
    Until: 12:00,1.0,        !- Field 5
    Until: 13:00,0.5,        !- Field 7
    Until: 17:00,1.0,        !- Field 9
    Until: 24:00,0.0,        !- Field 11
    For AllOtherDays,        !- Field 13
    Until: 24:00,0.0;        !- Field 14

  Schedule:Compact,
    16_APT_LIGHT_SCH,        !- Name
    Fraction,                !- Schedule Type Limits Name
    Through: 12/31,          !- Field 1
    For: AllDays,            !- Field 2
    Until: 04:00,0.067,      !- Field 3
    Until: 05:00,0.187,      !- Field 5
    Until: 06:00,0.394,      !- Field 7
    Until: 07:00,0.440,      !- Field 9
    Until: 08:00,0.393,      !- Field 11
    Until: 09:00,0.172,      !- Field 13
    Until: 15:00,0.119,      !- Field 15
    Until: 16:00,0.206,      !- Field 17
    Until: 17:00,0.439,      !- Field 19
    Until: 18:00,0.616,      !- Field 21
    Until: 19:00,0.829,      !- Field 23
    Until: 20:00,0.986,      !- Field 25
    Until: 21:00,1.0,        !- Field 27
    Until: 22:00,0.692,      !- Field 29
    Until: 23:00,0.384,      !- Field 31
    Until: 24:00,0.160;      !- Field 33

  Schedule:Compact,
    16_OFF_LIGHT_SCH,        !- Name
    Fraction,                !- Schedule Type Limits Name
    Through: 12/31,          !- Field 1
    For: Weekdays SummerDesignDay, !- Field 2
    Until: 08:00,0.18,       !- Field 3
    Until: 12:00,0.90,       !- Field 5
    Until: 13:00,0.80,       !- Field 7
    Until: 17:00,0.90,       !- Field 9
    Until: 24:00,0.18,       !- Field 11
    For: AllOtherDays,       !- Field 13
    Until: 24:00,0.18;       !- Field 14

  Schedule:Compact,
    16_COR_LIGHT_SCH,        !- Name
    Fraction,                !- Schedule Type Limits Name
    Through: 12/31,          !- Field 1
    For: AllDays,            !- Field 2
    Until: 24:00,1.0;        !- Field 3

  Schedule:Compact,
    16_APT_EQP_SCH,          !- Name
    Fraction,                !- Schedule Type Limits Name
    Through: 12/31,          !- Field 1
    For: AllDays,            !- Field 2
    Until: 1:00,0.45,        !- Field 3
    Until: 2:00,0.41,        !- Field 5
    Until: 3:00,0.39,        !- Field 7
    Until: 5:00,0.38,        !- Field 9
    Until: 6:00,0.43,        !- Field 11
    Until: 7:00,0.54,        !- Field 13
    Until: 8:00,0.65,        !- Field 15
    Until: 9:00,0.66,        !- Field 17
    Until: 10:00,0.67,       !- Field 19
    Until: 11:00,0.69,       !- Field 21
    Until: 12:00,0.70,       !- Field 23
    Until: 13:00,0.69,       !- Field 25
    Until: 14:00,0.66,       !- Field 27
    Until: 15:00,0.65,       !- Field 29
    Until: 16:00,0.68,       !- Field 31
    Until: 17:00,0.80,       !- Field 33
    Until: 19:00,1.0,        !- Field 35
    Until: 20:00,0.93,       !- Field 37
    Until: 21:00,0.89,       !- Field 39
    Until: 22:00,0.85,       !- Field 41
    Until: 23:00,0.71,       !- Field 43
    Until: 24:00,0.58;       !- Field 45

  Schedule:Compact,
    16_OFF_EQP_SCH,          !- Name
    Fraction,                !- Schedule Type Limits Name
    Through: 12/31,          !- Field 1
    For: Weekdays SummerDesignDay, !- Field 2
    Until: 7:00,0.33,        !- Field 3
    Until: 8:00,0.5,         !- Field 5
    Until: 12:00,1.0,        !- Field 7
    Until: 13:00,0.94,       !- Field 9
    Until: 17:00,1.0,        !- Field 11
    Until: 18:00,0.5,        !- Field 13
    Until: 24:00,0.33,       !- Field 15
    For AllOtherDays,        !- Field 17
    Until: 24:00,0.33;       !- Field 18

  Schedule:Compact,
    16_ACTIVITY_SCH,         !- Name
    Any Number,              !- Schedule Type Limits Name
    Through: 12/31,          !- Field 1
    For: AllDays,            !- Field 2
    Until: 24:00,120;        !- Field 3

  Schedule:Compact,
    16_WORK_EFF_SCH,         !- Name
    Fraction,                !- Schedule Type Limits Name
    Through: 12/31,          !- Field 1
    For: AllDays,            !- Field 2
    Until: 24:00,0.0;        !- Field 3

  Schedule:Compact,
    16_AIR_VELO_SCH,         !- Name
    Any Number,              !- Schedule Type Limits Name
    Through: 12/31,          !- Field 1
    For: AllDays,            !- Field 2
    Until: 24:00,0.2;        !- Field 3

  Schedule:Compact,
    16_CLOTHING_SCH,         !- Name
    Any Number,              !- Schedule Type Limits Name
    Through: 04/30,          !- Field 1
    For: AllDays,            !- Field 2
    Until: 24:00,1.0,        !- Field 3
    Through: 09/30,          !- Field 5
    For: AllDays,            !- Field 6
    Until: 24:00,0.5,        !- Field 7
    Through: 12/31,          !- Field 9
    For: AllDays,            !- Field 10
    Until: 24:00,1.0;        !- Field 11

! ***SCHEDULES***

  Schedule:Compact,
    16_UnitHeater_ClgSP_Sch, !- Name
    Temperature,             !- Schedule Type Limits Name
    THROUGH: 12/31,          !- Field 1
    FOR:AllDays,             !- Field 2
    UNTIL: 24:00,40;         !- Field 3

  Schedule:Compact,
    16_UnitHeater_HtgSP_Sch, !- Name
    Temperature,             !- Schedule Type Limits Name
    THROUGH: 12/31,          !- Field 1
    FOR:AllDays,             !- Field 2
    UNTIL: 24:00,15.6;       !- Field 3

  Schedule:Compact,
    16_APT_CLGSETP_SCH,      !- Name
    Temperature,             !- Schedule Type Limits Name
    THROUGH: 12/31,          !- Field 1
    FOR:AllDays,             !- Field 2
    UNTIL: 24:00,25;         !- Field 3

  Schedule:Compact,
    16_APT_HTGSETP_SCH,      !- Name
    Temperature,             !- Schedule Type Limits Name
    THROUGH: 12/31,          !- Field 1
    FOR:AllDays,             !- Field 2
    UNTIL: 24:00,20;         !- Field 3

  Schedule:Compact,
    16_OFF_HTGSETP_SCH,      !- Name
    Temperature,             !- Schedule Type Limits Name
    THROUGH: 12/31,          !- Field 1
    FOR:Weekdays WinterDesignDay, !- Field 2
    UNTIL: 7:00,15.6,        !- Field 3
    UNTIL: 8:00,18.3,        !- Field 5
    UNTIL:17:00,20,          !- Field 7
    UNTIL: 18:00,18.3,       !- Field 9
    UNTIL: 24:00,15.6,       !- Field 11
    FOR: AllOtherDays,       !- Field 13
    UNTIL: 24:00,15.6;       !- Field 14

  Schedule:Compact,
    16_OFF_CLGSETP_SCH,      !- Name
    Temperature,             !- Schedule Type Limits Name
    THROUGH: 12/31,          !- Field 1
    FOR:Weekdays SummerDesignDay, !- Field 2
    UNTIL: 7:00,29.4,        !- Field 3
    UNTIL: 8:00,26.7,        !- Field 5
    UNTIL:17:00,25,          !- Field 7
    UNTIL: 18:00,26.7,       !- Field 9
    UNTIL: 24:00,29.4,       !- Field 11
    FOR: AllOtherDays,       !- Field 13
    UNTIL: 24:00,29.4;       !- Field 14

  Schedule:Compact,
    16_Dual Zone Control Type Sched,  !- Name
    Control Type,            !- Schedule Type Limits Name
    Through: 12/31,          !- Field 1
    For: AllDays,            !- Field 2
    Until: 24:00,4;          !- Field 3

  Schedule:Compact,
    16_Apt_Operation,        !- Name
    On/Off,                  !- Schedule Type Limits Name
    Through: 12/31,          !- Field 1
    For: AllDays,            !- Field 2
    Until: 24:00,0;          !- Field 3

  Schedule:Compact,
    16_Office_Operation,     !- Name
    On/Off,                  !- Schedule Type Limits Name
    Through: 12/31,          !- Field 1
    For: Weekdays SummerDesignDay WinterDesignDay, !- Field 2
    Until: 8:00,0.0,         !- Field 3
    Until: 17:00,1.0,        !- Field 5
    Until: 24:00,0.0,        !- Field 7
    For AllOtherDays,        !- Field 9
    Until: 24:00,0.0;        !- Field 10

  Schedule:Compact,
    16_MinOA_Sched,          !- Name
    On/Off,                  !- Schedule Type Limits Name
    Through: 12/31,          !- Field 1
    For: AllDays,            !- Field 2
    Until: 24:00,1;          !- Field 3

! ***SWH SCHEDULES***

  Schedule:Compact,
    16_Apartment Water Equipment Latent fract sched,  !- Name
    Fraction,                !- Schedule Type Limits Name
    Through: 12/31,          !- Field 1
    For: AllDays,            !- Field 2
    Until: 24:00,0.05;       !- Field 3

  Schedule:Compact,
    16_Apartment Water Equipment Sensible fract sched,  !- Name
    Fraction,                !- Schedule Type Limits Name
    Through: 12/31,          !- Field 1
    For: AllDays,            !- Field 2
    Until: 24:00,0.2;        !- Field 3

  Schedule:Compact,
    16_Apartment Water Equipment Temp Sched,  !- Name
    Temperature,             !- Schedule Type Limits Name
    Through: 12/31,          !- Field 1
    For: AllDays,            !- Field 2
    Until: 24:00,43.3;       !- Field 3

  Schedule:Compact,
    16_Apartment Water Equipment Hot Supply Temp Sched,  !- Name
    Temperature,             !- Schedule Type Limits Name
    Through: 12/31,          !- Field 1
    For: AllDays,            !- Field 2
    Until: 24:00,43.3;       !- Field 3

  Schedule:Compact,
    16_SWHSys1 Water Heater Setpoint Temperature Schedule Name,  !- Name
    Temperature,             !- Schedule Type Limits Name
    Through: 12/31,          !- Field 1
    For: AllDays,            !- Field 2
    Until: 24:00,60.0;       !- Field 3

  Schedule:Compact,
    16_SWHSys1 Water Heater Ambient Temperature Schedule Name,  !- Name
    Temperature,             !- Schedule Type Limits Name
    Through: 12/31,          !- Field 1
    For: AllDays,            !- Field 2
    Until: 24:00,22.0;       !- Field 3

  Schedule:Compact,
    16_SWHSys1-Loop-Temp-Schedule,  !- Name
    Temperature,             !- Schedule Type Limits Name
    Through: 12/31,          !- Field 1
    For: AllDays,            !- Field 2
    Until: 24:00,60.0;       !- Field 3

  Schedule:Compact,
    16_APT_DHW_SCH,          !- Name
    Fraction,                !- Schedule Type Limits Name
    THROUGH: 12/31,          !- Field 1
    FOR: AllDays,            !- Field 2
    UNTIL: 1:00,0.08,        !- Field 3
    UNTIL: 2:00,0.04,        !- Field 5
    UNTIL: 3:00,0.01,        !- Field 7
    UNTIL: 4:00,0.01,        !- Field 9
    UNTIL: 5:00,0.04,        !- Field 11
    UNTIL: 6:00,0.27,        !- Field 13
    UNTIL: 7:00,0.94,        !- Field 15
    UNTIL: 8:00,1.00,        !- Field 17
    UNTIL: 9:00,0.96,        !- Field 19
    UNTIL: 10:00,0.84,       !- Field 21
    UNTIL: 11:00,0.76,       !- Field 23
    UNTIL: 12:00,0.61,       !- Field 25
    UNTIL: 13:00,0.53,       !- Field 27
    UNTIL: 14:00,0.47,       !- Field 29
    UNTIL: 15:00,0.41,       !- Field 31
    UNTIL: 16:00,0.47,       !- Field 33
    UNTIL: 17:00,0.55,       !- Field 35
    UNTIL: 18:00,0.73,       !- Field 37
    UNTIL: 19:00,0.86,       !- Field 39
    UNTIL: 20:00,0.82,       !- Field 41
    UNTIL: 21:00,0.75,       !- Field 43
    UNTIL: 22:00,0.61,       !- Field 45
    UNTIL: 23:00,0.53,       !- Field 47
    UNTIL: 24:00,0.29;       !- Field 49

  Schedule:Compact,
    16_CoolingCoilAvailSched,!- Name
    Fraction,                !- Schedule Type Limits Name
    Through: 5/15,           !- Field 1
    For: AllDays,            !- Field 2
    Until: 24:00,0,          !- Field 3
    Through: 9/30,           !- Field 5
    For: WeekDays,           !- Field 6
    Until: 7:00,1,           !- Field 7
    Until: 17:00,1.0,        !- Field 9
    Until: 24:00,1,          !- Field 11
    For: SummerDesignDay WinterDesignDay, !- Field 13
    Until: 24:00,1.0,        !- Field 14
    For: AllOtherDays,       !- Field 16
    Until: 24:00,1,          !- Field 17
    Through: 12/31,          !- Field 19
    For: AllDays,            !- Field 20
    Until: 24:00,0;          !- Field 21

  Schedule:Compact,
    16_ReheatCoilAvailSched, !- Name
    Fraction,                !- Schedule Type Limits Name
    Through: 6/30,           !- Field 1
    For: AllDays,            !- Field 2
    Until: 24:00,1.0,        !- Field 3
    Through: 8/31,           !- Field 5
    For: WeekDays,           !- Field 6
    Until: 7:00,1,           !- Field 7
    Until: 17:00,1,          !- Field 9
    Until: 24:00,1,          !- Field 11
    For: SummerDesignDay WinterDesignDay, !- Field 13
    Until: 24:00,1,          !- Field 14
    For: AllOtherDays,       !- Field 16
    Until: 24:00,1,          !- Field 17
    Through: 12/31,          !- Field 19
    For: AllDays,            !- Field 20
    Until: 24:00,1.0;        !- Field 21

  Schedule:Compact,
    16_WindowVentSched,      !- Name
    Any Number,              !- Schedule Type Limits Name
    Through: 4/30,           !- Field 1
    For: AllDays,            !- Field 2
    Until: 24:00,25.55,      !- Field 3
    Through: 9/30,           !- Field 5
    For: AllDays,            !- Field 6
    Until: 24:00,21,         !- Field 7
    Through: 12/31,          !- Field 9