!-Generator IDFEditor 1.49
!-Option SortedOrder
!-NOTE: All comments with '!-' are ignored by the IDFEditor and are generated automatically.
!-      Use '!' comments if they need to be retained when using the IDFEditor.
!-   ===========  ALL OBJECTS IN CLASS: VERSION ===========
!$Id: eplus.res.template,v 1.15 2019/02/07 17:10:57 d3a061 Exp d3a061 $
!$Log: eplus.res.template,v $
!Revision 1.15  2019/02/07 17:10:57  d3a061
!Added defaults for duct R-values.  Added a code default (taken from
!consolidated.materials.template) and a moisture_regime default (from
!the same place).
!
!Revision 1.14  2019/01/28 18:07:01  d3a061
!Added default settings for wwr.  Fixed problem that was using the
!'system' parm where it should have used 'hvac_type'; also added
!missing setting of hvac_type to 'heatpump' where appropriate.
!Fixed bug in how r_crawlwall and r_bsmtwall were being defaulted.
!Beefed up screening of tropical_designation as applied to singe-family
!homes (was accidentally including singlewide manufactured homes in
!the check).
!
!Revision 1.13  2018/12/13 20:26:25  d3a061
!Added the $TEMPLATE_PATH variable to simplify the process() calls.
!
!Revision 1.12  2018/12/13 20:09:00  d3a061
!Fairly extensive cleanup and refactoring to make make the template work with
!the "canonical" index variables and other such things, including making
!cfm25 a valid input that is coordinated with leakage_ratio.
!
!Revision 1.11  2018/10/15 17:40:35  d3a061
!Changed hard-coded shower_gpm, sink_gpm, and bath_gpm variables to changeable
!parameters with defaults.
!
!Revision 1.10  2018/09/17 17:36:16  d3a061
!Fixed big that was setting $humidity_designation and/or $tropical_designation to
!undef instead of ''.  Added the $ach25 parameter as a better alternative to the
!$leakage_ratio that had been used in the past (the latter, if given, still has
!precedence over the former).  Added calls to generate a globals_report.  And af
!few cleanups of code.
!
!Revision 1.9  2018/09/11 15:38:48  d3a061
!Added kludges to allow more consistent parm column names for climate zones, moisture
!regimes, and humidity/tropical designations.  Put in a check to bomb if the user
!specifies any specific LED components to the lighting (needs to be enhanced to properly
!accommodate LEDs, but...later).  Fixed default value of $ua.
!
!Revision 1.8  2018/05/21 17:13:05  d3a061
!Added/clarified comments on the $max_supply calcs.
!
!Revision 1.7  2018/05/17 21:37:17  d3a061
!Fixed a bunch of typos that were introduced when the setdef() calls were
!inserted in place of ||=.  Also added in 2018 IECC default lighting fractions
!that had been inadvertently omitted before.
!
!Revision 1.6  2018/05/08 15:53:18  d3a061
!Replaced all uses of ||= with setdef() or val_or().  Added in re-wired (haha)
!lighting procedure.  A few other fix-ups, comments, indents, etc., that were
!left out when the original 8.6 template was created.  (Sigh.)
!
!Revision 1.5  2018/02/08 20:23:25  d3a061
!Updated DHW energy factors for new Federal standards that are current as
!of 2018.
!
!Revision 1.4  2018/02/07 16:22:53  d3a061
!Reworked DHW savings for 2015 and 2018 IECCs.
!
!Revision 1.3  2017/04/27 21:41:17  mend509
!Added the additional lighting load for the unconditioned floor area of the semi-conditioned prototype
!
!Revision 1.2  2017/04/24 15:45:58  d3a061
!Dropped all the Windows line ending characters (ugh--it marks every line
!as updated in the diffs), and changed to the "English" version of $WARNING
!to eliminate the Perl warnings about the deprecated control-W version of
!that variable.
!
!Revision 1.1  2017/04/12 22:43:34  mend509
!Initial revision
!
!Revision 1.6  2015/06/27 00:14:44  mend509
!Revised insulation quality calculation
!
!Revision 1.5  2015/05/21 16:51:15  mend509
!Archive after determination analysis
!
!Revision 1.4  2014/06/27 16:27:02  mend509
!Check in before DHW changes
!
!Revision 1.2  2014/05/19 23:06:43  mend509
!Two main revisions:
!1: Re-wired ground temperature sections to read from previously generated gtp files if available
!2: Copied over 2012 IECC into 2015 IECC variables where applicable
!
!Revision 1.1  2014/05/16 23:22:50  mend509
!Initial revision
!
!Revision 1.2  2013/03/29 17:30:21  mend509
!Archived after generating first set of masonry input files
!
!Revision 1.1  2013/03/24 05:30:59  mend509
!Initial revision
!
! ---------------------------------------------------------------------------------------------------------
! The Residential Prototype Building Models were developed by Pacific Northwest National Laboratory (PNNL),
! under contract with the U.S. Department of Energy (DOE).
! The purpose of developing these building prototype models is to measure energy saving impacts from
! various residential energy codes. Detailed model development descriptions are documented in
! PNNL report titled "Cost-Effectiveness Analysis of the 2009 and 2012 IECC Residential Provisions
! - Technical Support Document".
! ---------------------------------------------------------------------------------------------------------
! GPARM parameters as run:
!    ID = SF+CZ5AWH+USA_IL_Chicago-OHare.Intl.AP.725300+elecres+crawlspace+IECC_2018
!    weatherfile = USA_IL_Chicago-OHare.Intl.AP.725300_TMY3.epw
!    climate_zone = Climate Zone 5
!    moisture_regime = Moist
!    humidity_designation = Not Warm-Humid
!    tropical_designation = Not Tropical
!    bldg_type = Single-Family
!    fndn_type = Crawlspace
!    system_tag = Electric Furnace
!    code = IECC_2018
!    permits = 178.861204
!    cfm25 = 4
!    dhw_type =

  Version,24.2;

!-   ===========  ALL OBJECTS IN CLASS: SIMULATIONCONTROL ===========
!$Id: consolidated.materials.template,v 1.5 2019/02/07 17:04:56 d3a061 Exp d3a061 $
!$Log: consolidated.materials.template,v $
!Revision 1.5  2019/02/07 17:04:56  d3a061
!Eliminated default setting for 'code'.  Commented out the semi-cond specs.
!
!Revision 1.4  2018/05/17 21:42:40  d3a061
!Ran dos2unix on it.
!
!Revision 1.3  2017/04/12 22:42:05  mend509
!Added the 2018 IECC hash
!
!Revision 1.2  2017/04/12 21:49:58  d3a061
!Changes to avoid deprecated Perlisms.
!
!Revision 1.1  2017/03/07 22:15:07  d3a061
!Initial revision
!
!Revision 1.8  2015/06/27 00:15:04  mend509
!Revised insulation quality calculation
!
!Revision 1.7  2015/06/04 03:10:16  d3l143
!*** empty log message ***
!
!Revision 1.6  2015/06/01 22:09:59  d3l143
!added wall insulation degrdation factor for FOA.
!
!Revision 1.5  2015/05/21 16:52:14  mend509
!Archive after determination analysis
!
!Revision 1.4  2015/03/30 22:41:58  mend509
!Wall framing fraction fix didn't work; trying again
!
!Revision 1.3  2015/03/30 22:40:17  mend509
!$framing_fraction for walls defaults to 16 in OC but can take value though the parm file now
!
!Revision 1.2  2014/05/19 23:06:16  mend509
!Copied 2012 IECC envelope requirements into a 2015 hash
!
!Revision 1.1  2014/05/16 23:25:45  mend509
!Initial revision
!
!Revision 1.2  2013/03/29 17:30:59  mend509
!Archived after generating first set of masonry input files
!
!Revision 1.1  2013/03/24 05:34:54  mend509
!Initial revision
!

  SimulationControl,
    Yes,                     !- Do Zone Sizing Calculation
    Yes,                     !- Do System Sizing Calculation
    No,                      !- Do Plant Sizing Calculation
    No,                      !- Run Simulation for Sizing Periods
    Yes,                     !- Run Simulation for Weather File Run Periods
    No,                      !- Do HVAC Sizing Simulation for Sizing Periods
    1;                       !- Maximum Number of HVAC Sizing Simulation Passes

!-   ===========  ALL OBJECTS IN CLASS: BUILDING ===========

  Building,
    SF+CZ5AWH+USA_IL_Chicago-OHare.Intl.AP.725300+elecres+crawlspace+IECC_2018,  !- Name
    0,                       !- North Axis {deg}
    Suburbs,                 !- Terrain
    0.04,                    !- Loads Convergence Tolerance Value {W}
    0.4,                     !- Temperature Convergence Tolerance Value {deltaC}
    FullExterior,            !- Solar Distribution
    25,                      !- Maximum Number of Warmup Days
    6;                       !- Minimum Number of Warmup Days

!-   ===========  ALL OBJECTS IN CLASS: SURFACECONVECTIONALGORITHM:INSIDE ===========

  SurfaceConvectionAlgorithm:Inside,TARP;

!-   ===========  ALL OBJECTS IN CLASS: TIMESTEP ===========

  Timestep,4;

!-   ===========  ALL OBJECTS IN CLASS: SITE:LOCATION ===========
! Location and design-day objects created by:
! Site:Location and design-day objects created by:
! /projects/bigsim/bin/ddy2idf /projects/bigsim/weather/EnergyPlus/tmy3.new/all/USA_IL_Chicago-OHare.Intl.AP.725300_TMY3.ddy
!

  Site:Location,
    Chicago Ohare Intl Ap_IL_USA Design_Conditions,  !- Name
    41.98,                   !- Latitude {deg}
    -87.92,                  !- Longitude {deg}
    -6.0,                    !- Time Zone {hr}
    201.00;                  !- Elevation {m}

!-   ===========  ALL OBJECTS IN CLASS: SIZINGPERIOD:WEATHERFILEDAYS ===========

  SizingPeriod:WeatherFileDays,
    HDD,                     !- Name
    11,                      !- Begin Month
    20,                      !- Begin Day of Month
    11,                      !- End Month
    20,                      !- End Day of Month
    Monday,                  !- Day of Week for Start Day
    Yes,                     !- Use Weather File Daylight Saving Period
    Yes;                     !- Use Weather File Rain and Snow Indicators

  SizingPeriod:WeatherFileDays,
    CDD,                     !- Name
    7,                       !- Begin Month
    21,                      !- Begin Day of Month
    7,                       !- End Month
    21,                      !- End Day of Month
    Monday,                  !- Day of Week for Start Day
    Yes,                     !- Use Weather File Daylight Saving Period
    Yes;                     !- Use Weather File Rain and Snow Indicators

  SizingPeriod:WeatherFileDays,
    HDD3,                    !- Name
    12,                      !- Begin Month
    20,                      !- Begin Day of Month
    12,                      !- End Month
    20,                      !- End Day of Month
    Monday,                  !- Day of Week for Start Day
    Yes,                     !- Use Weather File Daylight Saving Period
    Yes;                     !- Use Weather File Rain and Snow Indicators

  SizingPeriod:WeatherFileDays,
    CDD2,                    !- Name
    5,                       !- Begin Month
    23,                      !- Begin Day of Month
    5,                       !- End Month
    23,                      !- End Day of Month
    Monday,                  !- Day of Week for Start Day
    Yes,                     !- Use Weather File Daylight Saving Period
    Yes;                     !- Use Weather File Rain and Snow Indicators

  SizingPeriod:WeatherFileDays,
    CDD3,                    !- Name
    5,                       !- Begin Month
    30,                      !- Begin Day of Month
    5,                       !- End Month
    30,                      !- End Day of Month
    Monday,                  !- Day of Week for Start Day
    Yes,                     !- Use Weather File Daylight Saving Period
    Yes;                     !- Use Weather File Rain and Snow Indicators

!-   ===========  ALL OBJECTS IN CLASS: RUNPERIOD ===========

  RunPeriod,
    annual,                  !- Name
    1,                       !- Begin Month
    1,                       !- Begin Day of Month
    ,                        !- Begin Year
    12,                      !- End Month
    31,                      !- End Day of Month
    ,                        !- End Year
    ,                        !- Day of Week for Start Day
    Yes,                     !- Use Weather File Holidays and Special Days
    Yes,                     !- Use Weather File Daylight Saving Period
    No,                      !- Apply Weekend Holiday Rule
    Yes,                     !- Use Weather File Rain Indicators
    Yes,                     !- Use Weather File Snow Indicators
    ;                        !- Treat Weather as Actual

!-   ===========  ALL OBJECTS IN CLASS: SITE:GROUNDTEMPERATURE:BUILDINGSURFACE ===========

  Site:GroundTemperature:BuildingSurface,4.4,3.3,2.3,1.8,2,4,6.8,9.3,10.1,9.6,7.8,6;

!-   ===========  ALL OBJECTS IN CLASS: SITE:WATERMAINSTEMPERATURE ===========
! Weather_file = USA_IL_Chicago-OHare.Intl.AP.725300_TMY3.epw;
! Using the stat2idf and the ddy2idf script...
! Water mains temperature correlation object created by:
! Water mains temperature object created by:
! /projects/bigsim/resstd/vm/bin/stat2idf /projects/bigsim/weather/EnergyPlus/tmy3.new/all/USA_IL_Chicago-OHare.Intl.AP.725300_TMY3.stat
!

  Site:WaterMainsTemperature,
    Correlation,             !- Calculation Method
    ,                        !- Temperature Schedule Name
    9.925,                   !- Annual Average Outdoor Air Temperature {C}
    28.7;                    !- Maximum Difference In Monthly Average Outdoor Air Temperatures {deltaC}

!-   ===========  ALL OBJECTS IN CLASS: SCHEDULETYPELIMITS ===========

  ScheduleTypeLimits,
    any number;              !- Name

  ScheduleTypeLimits,
    On/Off,                  !- Name
    0,                       !- Lower Limit Value
    1,                       !- Upper Limit Value
    Discrete;                !- Numeric Type

  ScheduleTypeLimits,
    control_type,            !- Name
    0,                       !- Lower Limit Value
    4,                       !- Upper Limit Value
    Discrete;                !- Numeric Type

  ScheduleTypeLimits,
    fraction,                !- Name
    0,                       !- Lower Limit Value
    1,                       !- Upper Limit Value
    Continuous;              !- Numeric Type

  ScheduleTypeLimits,
    Temperature,             !- Name
    -60,                     !- Lower Limit Value
    200,                     !- Upper Limit Value
    Continuous;              !- Numeric Type

!-   ===========  ALL OBJECTS IN CLASS: SCHEDULE:DAY:HOURLY ===========
!
! *** Occupancy and Lighting factors taken from NREL benchmark model ***
!

  Schedule:Day:Hourly,
    17_OccupancyDay,         !- Name
    fraction,                !- Schedule Type Limits Name
    1.00000,                 !- Hour 1
    1.00000,                 !- Hour 2
    1.00000,                 !- Hour 3
    1.00000,                 !- Hour 4
    1.00000,                 !- Hour 5
    1.00000,                 !- Hour 6
    1.00000,                 !- Hour 7
    0.88310,                 !- Hour 8
    0.40861,                 !- Hour 9
    0.24189,                 !- Hour 10
    0.24189,                 !- Hour 11
    0.24189,                 !- Hour 12
    0.24189,                 !- Hour 13
    0.24189,                 !- Hour 14
    0.24189,                 !- Hour 15
    0.24189,                 !- Hour 16
    0.29498,                 !- Hour 17
    0.55310,                 !- Hour 18
    0.89693,                 !- Hour 19
    0.89693,                 !- Hour 20
    0.89693,                 !- Hour 21
    1.00000,                 !- Hour 22
    1.00000,                 !- Hour 23
    1.00000;                 !- Hour 24

  Schedule:Day:Hourly,
    17_LightingDay,          !- Name
    fraction,                !- Schedule Type Limits Name
    0.0625,                  !- Hour 1
    0.0625,                  !- Hour 2
    0.0625,                  !- Hour 3
    0.0625,                  !- Hour 4
    0.1875,                  !- Hour 5
    0.390625,                !- Hour 6
    0.4375,                  !- Hour 7
    0.390625,                !- Hour 8
    0.171875,                !- Hour 9
    0.1171875,               !- Hour 10
    0.1171875,               !- Hour 11
    0.1171875,               !- Hour 12
    0.1171875,               !- Hour 13
    0.1171875,               !- Hour 14
    0.1171875,               !- Hour 15
    0.203125,                !- Hour 16
    0.4375,                  !- Hour 17
    0.609375,                !- Hour 18
    0.8203125,               !- Hour 19
    0.984375,                !- Hour 20
    1,                       !- Hour 21
    0.6875,                  !- Hour 22
    0.3828125,               !- Hour 23
    0.15625;                 !- Hour 24

  Schedule:Day:Hourly,
    17_LightingDay_EELighting_OccSensors,  !- Name
    fraction,                !- Schedule Type Limits Name
    0.065170403,             !- Hour 1
    0.065170403,             !- Hour 2
    0.065170403,             !- Hour 3
    0.065170403,             !- Hour 4
    0.195511208,             !- Hour 5
    0.407315016,             !- Hour 6
    0.456192818,             !- Hour 7
    0.407315016,             !- Hour 8
    0.179218607,             !- Hour 9
    0.122194505,             !- Hour 10
    0.122194505,             !- Hour 11
    0.122194505,             !- Hour 12
    0.122194505,             !- Hour 13
    0.122194505,             !- Hour 14
    0.122194505,             !- Hour 15
    0.211803808,             !- Hour 16
    0.456192818,             !- Hour 17
    0.635411425,             !- Hour 18
    0.855361533,             !- Hour 19
    0.947933128,             !- Hour 20
    0.947933128,             !- Hour 21
    0.716874428,             !- Hour 22
    0.399168715,             !- Hour 23
    0.162926006;             !- Hour 24

  Schedule:Day:Hourly,
    17_LightingDay_EELighting_Garage_OccSensors,  !- Name
    fraction,                !- Schedule Type Limits Name
    0.048125,                !- Hour 1
    0.048125,                !- Hour 2
    0.048125,                !- Hour 3
    0.048125,                !- Hour 4
    0.144375,                !- Hour 5
    0.30078125,              !- Hour 6
    0.336875,                !- Hour 7
    0.30078125,              !- Hour 8
    0.13234375,              !- Hour 9
    0.090234375,             !- Hour 10
    0.090234375,             !- Hour 11
    0.090234375,             !- Hour 12
    0.090234375,             !- Hour 13
    0.090234375,             !- Hour 14
    0.090234375,             !- Hour 15
    0.15640625,              !- Hour 16
    0.336875,                !- Hour 17
    0.46921875,              !- Hour 18
    0.631640625,             !- Hour 19
    0.7,                     !- Hour 20
    0.7,                     !- Hour 21
    0.529375,                !- Hour 22
    0.294765625,             !- Hour 23
    0.1203125;               !- Hour 24

  Schedule:Day:Hourly,
    17_ExteriorLightingDay,  !- Name
    fraction,                !- Schedule Type Limits Name
    1,                       !- Hour 1
    1,                       !- Hour 2
    1,                       !- Hour 3
    1,                       !- Hour 4
    1,                       !- Hour 5
    1,                       !- Hour 6
    0,                       !- Hour 7
    0,                       !- Hour 8
    0,                       !- Hour 9
    0,                       !- Hour 10
    0,                       !- Hour 11
    0,                       !- Hour 12
    0,                       !- Hour 13
    0,                       !- Hour 14
    0,                       !- Hour 15
    0,                       !- Hour 16
    0,                       !- Hour 17
    0,                       !- Hour 18
    1,                       !- Hour 19
    1,                       !- Hour 20
    1,                       !- Hour 21
    1,                       !- Hour 22
    1,                       !- Hour 23
    1;                       !- Hour 24

  Schedule:Day:Hourly,
    17_LightingDay_EELighting,  !- Name
    fraction,                !- Schedule Type Limits Name
    0.06875,                 !- Hour 1
    0.06875,                 !- Hour 2
    0.06875,                 !- Hour 3
    0.06875,                 !- Hour 4
    0.20625,                 !- Hour 5
    0.4296875,               !- Hour 6
    0.48125,                 !- Hour 7
    0.4296875,               !- Hour 8
    0.1890625,               !- Hour 9
    0.12890625,              !- Hour 10
    0.12890625,              !- Hour 11
    0.12890625,              !- Hour 12
    0.12890625,              !- Hour 13
    0.12890625,              !- Hour 14
    0.12890625,              !- Hour 15
    0.2234375,               !- Hour 16
    0.48125,                 !- Hour 17
    0.6703125,               !- Hour 18
    0.90234375,              !- Hour 19
    1,                       !- Hour 20
    1,                       !- Hour 21
    0.75625,                 !- Hour 22
    0.42109375,              !- Hour 23
    0.171875;                !- Hour 24

  Schedule:Day:Hourly,
    17_RefrigeratorDay,      !- Name
    fraction,                !- Schedule Type Limits Name
    0.8,                     !- Hour 1
    0.782696177062374,       !- Hour 2
    0.765593561368209,       !- Hour 3
    0.742857142857143,       !- Hour 4
    0.731388329979879,       !- Hour 5
    0.731388329979879,       !- Hour 6
    0.759959758551308,       !- Hour 7
    0.8,                     !- Hour 8
    0.817102615694165,       !- Hour 9
    0.828571428571429,       !- Hour 10
    0.8,                     !- Hour 11
    0.8,                     !- Hour 12
    0.839839034205231,       !- Hour 13
    0.839839034205231,       !- Hour 14
    0.828571428571429,       !- Hour 15
    0.839839034205231,       !- Hour 16
    0.885714285714286,       !- Hour 17
    0.971428571428572,       !- Hour 18
    1,                       !- Hour 19
    0.971428571428572,       !- Hour 20
    0.942857142857143,       !- Hour 21
    0.925553319919517,       !- Hour 22
    0.885714285714286,       !- Hour 23
    0.828571428571429;       !- Hour 24

  Schedule:Day:Hourly,
    17_MiscPlugLoadDay,      !- Name
    fraction,                !- Schedule Type Limits Name
    0.607490272373541,       !- Hour 1
    0.559338521400778,       !- Hour 2
    0.552853437094682,       !- Hour 3
    0.545071335927367,       !- Hour 4
    0.524481193255512,       !- Hour 5
    0.585278858625162,       !- Hour 6
    0.676232166018158,       !- Hour 7
    0.718547341115435,       !- Hour 8
    0.607490272373541,       !- Hour 9
    0.517023346303502,       !- Hour 10
    0.529182879377432,       !- Hour 11
    0.529345006485084,       !- Hour 12
    0.520428015564202,       !- Hour 13
    0.538424124513619,       !- Hour 14
    0.568741893644617,       !- Hour 15
    0.600356679636835,       !- Hour 16
    0.71011673151751,        !- Hour 17
    0.862678339818418,       !- Hour 18
    0.936608300907912,       !- Hour 19
    0.966763942931258,       !- Hour 20
    1,                       !- Hour 21
    0.976653696498055,       !- Hour 22
    0.845168612191959,       !- Hour 23
    0.73443579766537;        !- Hour 24

  Schedule:Day:Hourly,
    17_CookingRangeDay,      !- Name
    fraction,                !- Schedule Type Limits Name
    0.04715848452508,        !- Hour 1
    0.04715848452508,        !- Hour 2
    0.0235458911419424,      !- Hour 3
    0.0235458911419424,      !- Hour 4
    0.04715848452508,        !- Hour 5
    0.0707043756670224,      !- Hour 6
    0.165088046958378,       !- Hour 7
    0.283017609391676,       !- Hour 8
    0.306563500533618,       !- Hour 9
    0.320771077908218,       !- Hour 10
    0.283017609391676,       !- Hour 11
    0.330176093916756,       !- Hour 12
    0.377334578441836,       !- Hour 13
    0.306563500533618,       !- Hour 14
    0.292422625400213,       !- Hour 15
    0.377334578441836,       !- Hour 16
    0.613193703308431,       !- Hour 17
    1,                       !- Hour 18
    0.778348452508004,       !- Hour 19
    0.400947171824973,       !- Hour 20
    0.235859124866596,       !- Hour 21
    0.165088046958378,       !- Hour 22
    0.103721985058698,       !- Hour 23
    0.0707043756670224;      !- Hour 24

  Schedule:Day:Hourly,
    17_DishwasherWeekday,    !- Name
    fraction,                !- Schedule Type Limits Name
    0.115858456545258,       !- Hour 1
    0.0514758745041469,      !- Hour 2
    0.0385691669671833,      !- Hour 3
    0.0257379372520738,      !- Hour 4
    0.0257379372520738,      !- Hour 5
    0.0772138117562207,      !- Hour 6
    0.154503101334295,       !- Hour 7
    0.23179239091237,        !- Hour 8
    0.437922322394519,       !- Hour 9
    0.489398196898665,       !- Hour 10
    0.425015614857555,       !- Hour 11
    0.360633032816445,       !- Hour 12
    0.309081680490443,       !- Hour 13
    0.347726325279481,       !- Hour 14
    0.28334374323837,        !- Hour 15
    0.270437035701407,       !- Hour 16
    0.28334374323837,        !- Hour 17
    0.373464262531554,       !- Hour 18
    0.656883483591778,       !- Hour 19
    0.837199999999997,       !- Hour 20
    0.682621420843852,       !- Hour 21
    0.502304904435629,       !- Hour 22
    0.334819617742518,       !- Hour 23
    0.23179239091237;        !- Hour 24

  Schedule:Day:Hourly,
    17_DishwasherWeekend,    !- Name
    fraction,                !- Schedule Type Limits Name
    0.124134060584205,       !- Hour 1
    0.0551527226830148,      !- Hour 2
    0.0413241074648395,      !- Hour 3
    0.0275763613415074,      !- Hour 4
    0.0275763613415074,      !- Hour 5
    0.0827290840245222,      !- Hour 6
    0.165539037143888,       !- Hour 7
    0.248348990263252,       !- Hour 8
    0.469202488279841,       !- Hour 9
    0.524355210962856,       !- Hour 10
    0.455373873061666,       !- Hour 11
    0.386392535160476,       !- Hour 12
    0.331158943382618,       !- Hour 13
    0.3725639199423,         !- Hour 14
    0.303582582041111,       !- Hour 15
    0.289753966822935,       !- Hour 16
    0.303582582041111,       !- Hour 17
    0.400140281283808,       !- Hour 18
    0.703803732419762,       !- Hour 19
    0.897,                   !- Hour 20
    0.731380093761269,       !- Hour 21
    0.538183826181031,       !- Hour 22
    0.358735304724125,       !- Hour 23
    0.248348990263252;       !- Hour 24

  Schedule:Day:Hourly,
    17_DishwasherVacation,   !- Name
    fraction,                !- Schedule Type Limits Name
    0,                       !- Hour 1
    0,                       !- Hour 2
    0,                       !- Hour 3
    0,                       !- Hour 4
    0,                       !- Hour 5
    0,                       !- Hour 6
    0,                       !- Hour 7
    0,                       !- Hour 8
    0,                       !- Hour 9
    0,                       !- Hour 10
    0,                       !- Hour 11
    0,                       !- Hour 12
    0,                       !- Hour 13
    0,                       !- Hour 14
    0,                       !- Hour 15
    0,                       !- Hour 16
    0,                       !- Hour 17
    0,                       !- Hour 18
    0,                       !- Hour 19
    0,                       !- Hour 20
    0,                       !- Hour 21
    0,                       !- Hour 22
    0,                       !- Hour 23
    0;                       !- Hour 24

  Schedule:Day:Hourly,
    17_ClothesWasherWeekday, !- Name
    fraction,                !- Schedule Type Limits Name
    0.0796474528960224,      !- Hour 1
    0.0637009071877185,      !- Hour 2
    0.0318078157711097,      !- Hour 3
    0.0318078157711097,      !- Hour 4
    0.0637009071877185,      !- Hour 5
    0.0955939986043261,      !- Hour 6
    0.191187997208654,       !- Hour 7
    0.414354361479414,       !- Hour 8
    0.62157418004187,        !- Hour 9
    0.7332,                  !- Hour 10
    0.717253454291697,       !- Hour 11
    0.637520725750175,       !- Hour 12
    0.573734542916957,       !- Hour 13
    0.510033635729239,       !- Hour 14
    0.446247452896022,       !- Hour 15
    0.414354361479414,       !- Hour 16
    0.430300907187718,       !- Hour 17
    0.414354361479414,       !- Hour 18
    0.414354361479414,       !- Hour 19
    0.414354361479414,       !- Hour 20
    0.414354361479414,       !- Hour 21
    0.398407815771109,       !- Hour 22
    0.270920725750174,       !- Hour 23
    0.143433635729239;       !- Hour 24

  Schedule:Day:Hourly,
    17_ClothesWasherWeekend, !- Name
    fraction,                !- Schedule Type Limits Name
    0.0974410327983253,      !- Hour 1
    0.0779319609211445,      !- Hour 2
    0.038913817166783,       !- Hour 3
    0.038913817166783,       !- Hour 4
    0.0779319609211445,      !- Hour 5
    0.116950104675506,       !- Hour 6
    0.233900209351012,       !- Hour 7
    0.506922889043964,       !- Hour 8
    0.760436496859734,       !- Hour 9
    0.897,                   !- Hour 10
    0.877490928122819,       !- Hour 11
    0.779945568736915,       !- Hour 12
    0.701909281228193,       !- Hour 13
    0.623977320307048,       !- Hour 14
    0.545941032798325,       !- Hour 15
    0.506922889043964,       !- Hour 16
    0.526431960921144,       !- Hour 17
    0.506922889043964,       !- Hour 18
    0.506922889043964,       !- Hour 19
    0.506922889043964,       !- Hour 20
    0.506922889043964,       !- Hour 21
    0.487413817166783,       !- Hour 22
    0.331445568736915,       !- Hour 23
    0.175477320307048;       !- Hour 24

  Schedule:Day:Hourly,
    17_ClothesWasherVacation,!- Name
    fraction,                !- Schedule Type Limits Name
    0,                       !- Hour 1
    0,                       !- Hour 2
    0,                       !- Hour 3
    0,                       !- Hour 4
    0,                       !- Hour 5
    0,                       !- Hour 6
    0,                       !- Hour 7
    0,                       !- Hour 8
    0,                       !- Hour 9
    0,                       !- Hour 10
    0,                       !- Hour 11
    0,                       !- Hour 12
    0,                       !- Hour 13
    0,                       !- Hour 14
    0,                       !- Hour 15
    0,                       !- Hour 16