

! ---------------------------------------------------------------------------------------------------------
! The Residential Prototype Building Models were developed by Pacific Northwest National Laboratory (PNNL), 
! under contract with the U.S. Department of Energy (DOE).   
! The purpose of developing these building prototype models is to measure energy saving impacts from 
! various residential energy codes. Detailed model development descriptions are documented in 
! PNNL report titled "Cost-Effectiveness Analysis of the 2009 and 2012 IECC Residential Provisions 
! - Technical Support Document".   
! ---------------------------------------------------------------------------------------------------------


! IDF File:     ./input-main/US+SF+CZ6A+gasfurnace+unheatedbsmt+IECC_2024.idf
! Run Case:     US+SF+CZ6A+gasfurnace+unheatedbsmt+IECC_2024	
! WeatherFile:  USA_MN_Rochester.Intl.AP.726440_TMY3.epw



! BEGIN of res.eplus.tmpl

! GPARM parameters as run:
!    ID = US+SF+CZ6A+gasfurnace+unheatedbsmt+IECC_2024
!    weatherfile = USA_MN_Rochester.Intl.AP.726440_TMY3.epw
!    climate_zone = Climate Zone 6
!    moisture_regime = Moist
!    humidity_designation = Not Warm-Humid
!    tropical_designation = Not Tropical
!    bldg_type = Single-Family
!    fndn_type = Unheated Basement
!    system_tag = Gas Furnace
!    code = IECC_2024
!    permits = 7979.02533715607
!    cfm25 = 4
!    state_abbr = MN
!    iecc2024_ec = yes
!    uef = 
!    re = 
!    afue = 0.95
!    seer = 
!    seer2 = 
!    appliances_credit = 
!    u_window = 
!    shgc_window = 
!    dhw_source_fuel = 
!    dhw_heater_eff = 
!    afn_control = MultizoneWithDistribution
!    dhw_type = 
!    webposting = Yes
!    DEBUG_TYPE = no
!    hourly_output = no
!    TEMPLATE_PATH = template/v23.1
!    default_values = regular

 




Version,
    23.1;                     !- Version Identifier
    
!-   ===========  ALL OBJECTS IN CLASS: GLOBALGEOMETRYRULES ===========

GlobalGeometryRules,
    LowerLeftCorner,         !- Starting Vertex Position
    Counterclockwise,        !- Vertex Entry Direction
    Relative;                !- Coordinate System











! BEGIN of res.default.var.tmpl


! END of res.default.var.tmpl





!- Geometry from the scalable geometry template
! BEGIN of res.geo.sf.tmpl

 BuildingSurface:Detailed,
    Inter zone floor 1,  !- Name
    Floor,  !- Surface Type
    Interior Floor,  !- Construction Name
    living_unit1,  !- Zone Name
	,                        !- Space Name
    Adiabatic,  !- Outside Boundary Condition
    ,  !- Outside Boundary Condition Object
    NoSun,  !- Sun Exposure
    NoWind,  !- Wind Exposure
    0.0,  !- View Factor to Ground
    4,  !- Number of Vertices
    0,0,2.60156341463415,0,9.09981820971244,2.60156341463415,12.1330909462833,9.09981820971244,2.60156341463415,12.1330909462833,0,2.60156341463415;
    

  BuildingSurface:Detailed,
    ceiling_unit1,  !- Name
    Ceiling,  !- Surface Type
    Interior Ceiling,  !- Construction Name
    living_unit1,  !- Zone Name
	,                        !- Space Name
    Zone,  !- Outside Boundary Condition
    attic_unit1,  !- Outside Boundary Condition Object
    NoSun,  !- Sun Exposure
    NoWind,  !- Wind Exposure
    0.0,  !- View Factor to Ground
    4,  !- Number of Vertices
    0,0,5.19302682926829,12.1330909462833,0,5.19302682926829,12.1330909462833,9.09981820971244,5.19302682926829,0,9.09981820971244,5.19302682926829;
    

!-   ===========  ALL OBJECTS IN CLASS: ZONE ===========
 
  Zone,
    living_unit1,  !- Name
    0.0,  !- Direction of Relative North {deg}
    0.0,  !- X Origin {m}
    0.0,  !- Y Origin {m}
    0.0,  !- Z Origin {m}
    ,  	  !- Type
    1;    !- Multiplier

  
  Zone,
    garage1,  !- Name
    0.0,  !- Direction of Relative North {deg}
    6.03709094628325,  !- X Origin {m}
    -6.096,  !- Y Origin {m}
    0.0,  !- Z Origin {m}
    ,  	  !- Type
    1;    !- Multiplier

  Zone,
    attic_unit1,  !- Name
    0.0,  !- Direction of Relative North {deg}
    0.0,  !- X Origin {m}
    0.0,  !- Y Origin {m}
    0.0,  !- Z Origin {m}
    ,     !- Type
    1;    !- Multiplier 
    
    
  Zone,
    unheatedbsmt_unit1,  !- Name
    0.0,  !- Direction of Relative North {deg}
    0.0,  !- X Origin {m}
    0.0,  !- Y Origin {m}
    0.0,  !- Z Origin {m}
    ,     !- Type
    1;    !- Multiplier
    


  InternalMass,
    Internalmass_unit1,  !- Name
    InteriorFurnishings,     !- Construction Name
    living_unit1,                 !- Zone Name
    ,                        !- Space or SpaceList Name
    9.89591078066915;                !- Surface Area {m2}

  BuildingSurface:Detailed,
    Roof_front_unit1,  !- Name
    Roof,  !- Surface Type
    Exterior Roof,  !- Construction Name
    attic_unit1,  !- Zone Name
	,                        !- Space Name
    Outdoors,  !- Outside Boundary Condition
    ,  !- Outside Boundary Condition Object
    SunExposed,  !- Sun Exposure
    WindExposed,  !- Wind Exposure
    0.0,  !- View Factor to Ground
    4,  !- Number of Vertices
    0,0,5.19302682926829,12.1330909462833,0,5.19302682926829,12.1330909462833,4.54990910485622,6.6995631975537,0,4.54990910485622,6.6995631975537;

  BuildingSurface:Detailed,
    Roof_back_unit1,  !- Name
    Roof,  !- Surface Type
    Exterior Roof,  !- Construction Name
    attic_unit1,  !- Zone Name
	,                        !- Space Name
    Outdoors,  !- Outside Boundary Condition
    ,  !- Outside Boundary Condition Object
    SunExposed,  !- Sun Exposure
    WindExposed,  !- Wind Exposure
    0.0,  !- View Factor to Ground
    4,  !- Number of Vertices
    12.1330909462833,9.09981820971244,5.19302682926829,0,9.09981820971244,5.19302682926829,0,4.54990910485622,6.6995631975537,12.1330909462833,4.54990910485622,6.6995631975537;

  BuildingSurface:Detailed,
    Roof_right_unit1,  !- Name
    Wall,  !- Surface Type
    Gable_end,  !- Construction Name
    attic_unit1,  !- Zone Name
	,                        !- Space Name
    Outdoors,  !- Outside Boundary Condition
    ,  !- Outside Boundary Condition Object
    SunExposed,  !- Sun Exposure
    WindExposed,  !- Wind Exposure
    ,  !- View Factor to Ground
    3,  !- Number of Vertices
    12.1330909462833,0,5.19302682926829,12.1330909462833,9.09981820971244,5.19302682926829,12.1330909462833,4.54990910485622,6.6995631975537;

  BuildingSurface:Detailed,
    Roof_left_unit1,  !- Name
    Wall,  !- Surface Type
    Gable_end,  !- Construction Name
    attic_unit1,  !- Zone Name
	,                        !- Space Name
    Outdoors,  !- Outside Boundary Condition
    ,  !- Outside Boundary Condition Object
    SunExposed,  !- Sun Exposure
    WindExposed,  !- Wind Exposure
    ,  !- View Factor to Ground
    3,  !- Number of Vertices
    0,9.09981820971244,5.19302682926829,0,0,5.19302682926829,0,4.54990910485622,6.6995631975537;
    

BuildingSurface:Detailed,
    Wall_ldf_1.unit1,                   !- Name
    Wall,                    !- Surface Type
    Exterior Wall,           !- Construction Name
    living_unit1,                  !- Zone Name
	,                        !- Space Name
    Outdoors,                !- Outside Boundary Condition
    ,                        !- Outside Boundary Condition Object
    SunExposed,              !- Sun Exposure
    WindExposed,             !- Wind Exposure
    ,                        !- View Factor to Ground
    4,                       !- Number of Vertices
    0,0,0.0101,6.03709094628325,0,0.0101,6.03709094628325,0,2.60156341463415,0,0,2.60156341463415;


BuildingSurface:Detailed,
    Wall_sdr_1.unit1,                   !- Name
    Wall,                    !- Surface Type
    Exterior Wall,           !- Construction Name
    living_unit1,                  !- Zone Name
	,                        !- Space Name
    Outdoors,                !- Outside Boundary Condition
    ,                        !- Outside Boundary Condition Object
    SunExposed,              !- Sun Exposure
    WindExposed,             !- Wind Exposure
    ,                        !- View Factor to Ground
    4,                       !- Number of Vertices
    12.1330909462833,0,0.0101,12.1330909462833,9.09981820971244,0.0101,12.1330909462833,9.09981820971244,2.60156341463415,12.1330909462833,0,2.60156341463415;

BuildingSurface:Detailed,
    Wall_ldb_1.unit1,                   !- Name
    Wall,                    !- Surface Type
    Exterior Wall,           !- Construction Name
    living_unit1,                  !- Zone Name
	,                        !- Space Name
    Outdoors,                !- Outside Boundary Condition
    ,                        !- Outside Boundary Condition Object
    SunExposed,              !- Sun Exposure
    WindExposed,             !- Wind Exposure
    ,                        !- View Factor to Ground
    4,                       !- Number of Vertices
    12.1330909462833,9.09981820971244,0.0101,0,9.09981820971244,0.0101,0,9.09981820971244,2.60156341463415,12.1330909462833,9.09981820971244,2.60156341463415;

BuildingSurface:Detailed,
    Wall_sdl_1.unit1,                   !- Name
    Wall,                    !- Surface Type
    Exterior Wall,           !- Construction Name
    living_unit1,                  !- Zone Name
	,                        !- Space Name
    Outdoors,                !- Outside Boundary Condition
    ,                        !- Outside Boundary Condition Object
    SunExposed,              !- Sun Exposure
    WindExposed,             !- Wind Exposure
    ,                        !- View Factor to Ground
    4,                       !- Number of Vertices
    0,9.09981820971244,0.0101,0,0,0.0101,0,0,2.60156341463415,0,9.09981820971244,2.60156341463415;


BuildingSurface:Detailed,
    Wall_ldf_1.garage1,  !- Name
    Wall,                    !- Surface Type
    Gable_end,           !- Construction Name
    garage1,            !- Zone Name
    ,                        !- Space Name
    Outdoors,                    !- Outside Boundary Condition
    ,                  !- Outside Boundary Condition Object
    SunExposed,                   !- Sun Exposure
    WindExposed,                  !- Wind Exposure
    ,                        !- View Factor to Ground
    4,                       !- Number of Vertices
    0,0,0.0101,6.096,0,0.0101,6.096,0,2.60156341463415,0,0,2.60156341463415;

BuildingSurface:Detailed,
    Wall_sdr_1.garage1,  !- Name
    Wall,                    !- Surface Type
    Gable_end,           !- Construction Name
    garage1,            !- Zone Name
    ,                        !- Space Name
    Outdoors,                    !- Outside Boundary Condition
    ,                  !- Outside Boundary Condition Object
    SunExposed,                   !- Sun Exposure
    WindExposed,                  !- Wind Exposure
    ,                        !- View Factor to Ground
    4,                       !- Number of Vertices
    6.096,0,0.0101,6.096,6.096,0.0101,6.096,6.096,2.60156341463415,6.096,0,2.60156341463415;

BuildingSurface:Detailed,
    Wall_ldb_1.garage1,  !- Name
    Wall,                    !- Surface Type
    Exterior Wall,           !- Construction Name
    living_unit1,            !- Zone Name
    ,                        !- Space Name
    Zone,                    !- Outside Boundary Condition
    garage1,                  !- Outside Boundary Condition Object
    NoSun,                   !- Sun Exposure
    NoWind,                  !- Wind Exposure
    ,                        !- View Factor to Ground
    4,                       !- Number of Vertices
    6.03709094628325,0,0.0101,12.1330909462833,0,0.0101,12.1330909462833,0,2.60156341463415,6.03709094628325,0,2.60156341463415;

BuildingSurface:Detailed,
    Wall_sdl_1.garage1,  !- Name
    Wall,                    !- Surface Type
    Gable_end,           !- Construction Name
    garage1,            !- Zone Name
    ,                        !- Space Name
    Outdoors,                    !- Outside Boundary Condition
    ,                  !- Outside Boundary Condition Object
    SunExposed,                   !- Sun Exposure
    WindExposed,                  !- Wind Exposure
    ,                        !- View Factor to Ground
    4,                       !- Number of Vertices
    0,6.096,0.0101,0,0,0.0101,0,0,2.60156341463415,0,6.096,2.60156341463415;


BuildingSurface:Detailed,
    Roof_front_garage1,  !- Name
    Roof,  !- Surface Type
    Exterior Roof,  !- Construction Name
    garage1,  !- Zone Name
	,                        !- Space Name
    Outdoors,  !- Outside Boundary Condition
    ,  !- Outside Boundary Condition Object
    SunExposed,  !- Sun Exposure
    WindExposed,  !- Wind Exposure
    0.0,  !- View Factor to Ground
    4,  !- Number of Vertices
    0,0,2.60156341463415,6.096,0,2.60156341463415,6.096,3.048,3.60746341463415,0,3.048,3.60746341463415;

  BuildingSurface:Detailed,
    Roof_back_garage1,  !- Name
    Roof,  !- Surface Type
    Exterior Roof,  !- Construction Name
    garage1,  !- Zone Name
	,                        !- Space Name
    Outdoors,  !- Outside Boundary Condition
    ,  !- Outside Boundary Condition Object
    SunExposed,  !- Sun Exposure
    WindExposed,  !- Wind Exposure
    0.0,  !- View Factor to Ground
    4,  !- Number of Vertices
    6.096,6.096,2.60156341463415,0,6.096,2.60156341463415,0,3.048,3.60746341463415,6.096,3.048,3.60746341463415;

  BuildingSurface:Detailed,
    Roof_right_garage1,  !- Name
    Wall,  !- Surface Type
    Gable_end,  !- Construction Name
    garage1,  !- Zone Name
	,                        !- Space Name
    Outdoors,  !- Outside Boundary Condition
    ,  !- Outside Boundary Condition Object
    SunExposed,  !- Sun Exposure
    WindExposed,  !- Wind Exposure
    ,  !- View Factor to Ground
    3,  !- Number of Vertices
    6.096,0,2.60156341463415,6.096,6.096,2.60156341463415,6.096,3.048,3.60746341463415;

  BuildingSurface:Detailed,
    Roof_left_garage1,  !- Name
    Wall,  !- Surface Type
    Gable_end,  !- Construction Name
    garage1,  !- Zone Name
	,                        !- Space Name
    Outdoors,  !- Outside Boundary Condition
    ,  !- Outside Boundary Condition Object
    SunExposed,  !- Sun Exposure
    WindExposed,  !- Wind Exposure
    ,  !- View Factor to Ground
    3,  !- Number of Vertices
    0,6.096,2.60156341463415,0,0,2.60156341463415,0,3.048,3.60746341463415;



Window,
    Window_ldf_1.unit1,	!- Name
    Exterior Window,  !- Construction Name
    Wall_ldf_1.unit1,	!- Building Surface Name
    
    ,		!- Frame and divider Name
    1,		!- Multiplier
    1,	!- Starting X coordinate
    0.914634146341463,	!- Starting Z coordinate
    2.70719591738945,	!- Length
    1.52439024390244;	!- Height
    
Window,
    Window_ldb_1.unit1,	!- Name
    Exterior Window,  !- Construction Name
    Wall_ldb_1.unit1,	!- Building Surface Name
    
    ,		!- Frame and divider Name
    1,		!- Multiplier
    2.74190122145512,	!- Starting X coordinate
    0.914634146341463,	!- Starting Z coordinate
    2.70719591738945,	!- Length
    1.52439024390244;	!- Height

Window,
    Window_sdr_1.unit1,	!- Name
    Exterior Window,  !- Construction Name
    Wall_sdr_1.unit1,	!- Building Surface Name
    
    ,		!- Frame and divider Name
    1,		!- Multiplier
    1,	!- Starting X coordinate
    0.914634146341463,	!- Starting Z coordinate
    2.70719591738945,	!- Length
    1.52439024390244;	!- Height
 
Window,
    Window_sdl_1.unit1,	!- Name
    Exterior Window,  !- Construction Name
    Wall_sdl_1.unit1,	!- Building Surface Name
    
    ,		!- Frame and divider Name
    1,		!- Multiplier
    1,	!- Starting X coordinate
    0.914634146341463,	!- Starting Z coordinate
    2.70719591738945,	!- Length
    1.52439024390244;	!- Height


Shading:Overhang,
    Overhang_sdr_1.unit1, 	!- Name
    Window_sdr_1.unit1,	!- Window or door name
    0,			!- Height above window or door
    90,			!- Tilt angle from window/door
    0,			!- Left extension from window/door width
    0,			!- Right extension from window/door width
    0.0152439024390244;	!- Depth

BuildingSurface:Detailed,
    Wall_ldf_2.unit1,                   !- Name
    Wall,                    !- Surface Type
    Exterior Wall,           !- Construction Name
    living_unit1,                   !- Zone Name
	  ,                        !- Space Name
    Outdoors,                !- Outside Boundary Condition
    ,                        !- Outside Boundary Condition Object
    SunExposed,              !- Sun Exposure
    WindExposed,             !- Wind Exposure
    ,                        !- View Factor to Ground
    4,                       !- Number of Vertices
    0,0,2.60156341463415,12.1330909462833,0,2.60156341463415,12.1330909462833,0,5.19302682926829,0,0,5.19302682926829;

BuildingSurface:Detailed,
    Wall_sdr_2.unit1,                   !- Name
    Wall,                    !- Surface Type
    Exterior Wall,           !- Construction Name
    living_unit1,                  !- Zone Name
	,                        !- Space Name
    Outdoors,                !- Outside Boundary Condition
    ,                        !- Outside Boundary Condition Object
    SunExposed,              !- Sun Exposure
    WindExposed,             !- Wind Exposure
    ,                        !- View Factor to Ground
    4,                       !- Number of Vertices
    12.1330909462833,0,2.60156341463415,12.1330909462833,9.09981820971244,2.60156341463415,12.1330909462833,9.09981820971244,5.19302682926829,12.1330909462833,0,5.19302682926829;

BuildingSurface:Detailed,
    Wall_ldb_2.unit1,                   !- Name
    Wall,                    !- Surface Type
    Exterior Wall,           !- Construction Name
    living_unit1,                  !- Zone Name
	,                        !- Space Name
    Outdoors,                !- Outside Boundary Condition
    ,                        !- Outside Boundary Condition Object
    SunExposed,              !- Sun Exposure
    WindExposed,             !- Wind Exposure
    ,                        !- View Factor to Ground
    4,                       !- Number of Vertices
    12.1330909462833,9.09981820971244,2.60156341463415,0,9.09981820971244,2.60156341463415,0,9.09981820971244,5.19302682926829,12.1330909462833,9.09981820971244,5.19302682926829;

BuildingSurface:Detailed,
    Wall_sdl_2.unit1,                   !- Name
    Wall,                    !- Surface Type
    Exterior Wall,           !- Construction Name
    living_unit1,                  !- Zone Name
	,                        !- Space Name
    Outdoors,                !- Outside Boundary Condition
    ,                        !- Outside Boundary Condition Object
    SunExposed,              !- Sun Exposure
    WindExposed,             !- Wind Exposure
    ,                        !- View Factor to Ground
    4,                       !- Number of Vertices
    0,9.09981820971244,2.60156341463415,0,0,2.60156341463415,0,0,5.19302682926829,0,9.09981820971244,5.19302682926829;


Window,
    Window_ldf_2.unit1,	!- Name
    Exterior Window,  !- Construction Name
    Wall_ldf_2.unit1,	!- Building Surface Name
    
    ,		!- Frame and divider Name
    1,		!- Multiplier
    1,	!- Starting X coordinate
    0.914634146341463,	!- Starting Z coordinate
    2.70719591738945,	!- Length
    1.52439024390244;	!- Height
    
Window,
    Window_ldb_2.unit1,	!- Name
    Exterior Window,  !- Construction Name
    Wall_ldb_2.unit1,	!- Building Surface Name
    
    ,		!- Frame and divider Name
    1,		!- Multiplier
    2.74190122145512,	!- Starting X coordinate
    0.914634146341463,	!- Starting Z coordinate
    2.70719591738945,	!- Length
    1.52439024390244;	!- Height

Window,
    Window_sdr_2.unit1,	!- Name
    Exterior Window,  !- Construction Name
    Wall_sdr_2.unit1,	!- Building Surface Name
    
    ,		!- Frame and divider Name
    1,		!- Multiplier
    1,	!- Starting X coordinate
    0.914634146341463,	!- Starting Z coordinate
    2.70719591738945,	!- Length
    1.52439024390244;	!- Height
 
Window,
    Window_sdl_2.unit1,	!- Name
    Exterior Window,  !- Construction Name
    Wall_sdl_2.unit1,	!- Building Surface Name
    
    ,		!- Frame and divider Name
    1,		!- Multiplier
    1,	!- Starting X coordinate
    0.914634146341463,	!- Starting Z coordinate
    2.70719591738945,	!- Length
    1.52439024390244;	!- Height


Shading:Overhang,
    Overhang_sdr_2.unit1, 	!- Name
    Window_sdr_2.unit1,	!- Window or door name
    0,			!- Height above window or door
    90,			!- Tilt angle from window/door
    0,			!- Left extension from window/door width
    0,			!- Right extension from window/door width
    0.0152439024390244;	!- Depth

BuildingSurface:Detailed,
    Floor_unit1,  !- Name
    Floor,  !- Surface Type
    Exterior Floor,  !- Construction Name
    living_unit1,  !- Zone Name
	,                        !- Space Name
    Zone,  !- Outside Boundary Condition
    unheatedbsmt_unit1,  !- Outside Boundary Condition Object
    NoSun,  !- Sun Exposure
    NoWind,  !- Wind Exposure
    0.0,  !- View Factor to Ground
    4,  !- Number of Vertices
    0,0,0.0101,0,9.09981820971244,0.0101,12.1330909462833,9.09981820971244,0.0101,12.1330909462833,0,0.0101;    
    
    
BuildingSurface:Detailed,
    BGWall_upper_ldf,                  !- Name
    Wall,                    !- Surface Type
    Basement Wall,           !- Construction Name
    unheatedbsmt_unit1,              !- Zone Name
	,                        !- Space Name
    Outdoors,                !- Outside Boundary Condition
    ,                        !- Outside Boundary Condition Object
    SunExposed,              !- Sun Exposure
    WindExposed,             !- Wind Exposure
    ,                        !- View Factor to Ground
    4,                       !- Number of Vertices
    0,0,0,12.1330909462833,0,0,12.1330909462833,0,0.0101,0,0,0.0101;

BuildingSurface:Detailed,
    BGWall_lower_ldf,                  !- Name
    Wall,                    !- Surface Type
    Basement Wall,           !- Construction Name
    unheatedbsmt_unit1,              !- Zone Name
	,                        !- Space Name
    Ground,                !- Outside Boundary Condition
    ,                        !- Outside Boundary Condition Object
    NoSun,  		     !- Sun Exposure
    NoWind,       	     !- Wind Exposure
    ,                        !- View Factor to Ground
    4,                       !- Number of Vertices
    0,0,-2.12404634146341,12.1330909462833,0,-2.12404634146341,12.1330909462833,0,0,0,0,0;
    
BuildingSurface:Detailed,
    BGWall_upper_sdr,                  !- Name
    Wall,                    !- Surface Type
    Basement Wall,           !- Construction Name
    unheatedbsmt_unit1,              !- Zone Name
	,                        !- Space Name
    Outdoors,                !- Outside Boundary Condition
    ,                        !- Outside Boundary Condition Object
    SunExposed,              !- Sun Exposure
    WindExposed,             !- Wind Exposure
    ,                        !- View Factor to Ground
    4,                       !- Number of Vertices
    12.1330909462833,0,0,12.1330909462833,9.09981820971244,0,12.1330909462833,9.09981820971244,0.0101,12.1330909462833,0,0.0101;
    
BuildingSurface:Detailed,
    BGWall_lower_sdr,                  !- Name
    Wall,                    !- Surface Type
    Basement Wall,           !- Construction Name
    unheatedbsmt_unit1,              !- Zone Name
	,                        !- Space Name
    Ground,                !- Outside Boundary Condition
    ,                        !- Outside Boundary Condition Object
    NoSun,  !- Sun Exposure
    NoWind,  !- Wind Exposure
    ,                        !- View Factor to Ground
    4,                       !- Number of Vertices
    12.1330909462833,0,-2.12404634146341,12.1330909462833,9.09981820971244,-2.12404634146341,12.1330909462833,9.09981820971244,0,12.1330909462833,0,0;
        
BuildingSurface:Detailed,
    BGWall_upper_ldb,                  !- Name
    Wall,                    !- Surface Type
    Basement Wall,           !- Construction Name
    unheatedbsmt_unit1,              !- Zone Name
	,                        !- Space Name
    Outdoors,                !- Outside Boundary Condition
    ,                        !- Outside Boundary Condition Object
    SunExposed,              !- Sun Exposure
    WindExposed,             !- Wind Exposure
    ,                        !- View Factor to Ground
    4,                       !- Number of Vertices
    12.1330909462833,9.09981820971244,0,0,9.09981820971244,0,0,9.09981820971244,0.0101,12.1330909462833,9.09981820971244,0.0101;
    
BuildingSurface:Detailed,
    BGWall_lower_ldb,                  !- Name
    Wall,                    !- Surface Type
    Basement Wall,           !- Construction Name
    unheatedbsmt_unit1,              !- Zone Name
	,                        !- Space Name
    Ground,                !- Outside Boundary Condition
    ,                        !- Outside Boundary Condition Object
    NoSun,  !- Sun Exposure
    NoWind,  !- Wind Exposure
    ,                        !- View Factor to Ground
    4,                       !- Number of Vertices
    12.1330909462833,9.09981820971244,-2.12404634146341,0,9.09981820971244,-2.12404634146341,0,9.09981820971244,0,12.1330909462833,9.09981820971244,0;

BuildingSurface:Detailed,
    BGWall_upper_sdl,                  !- Name
    Wall,                    !- Surface Type
    Basement Wall,           !- Construction Name
    unheatedbsmt_unit1,              !- Zone Name
	,                        !- Space Name
    Outdoors,                !- Outside Boundary Condition
    ,                        !- Outside Boundary Condition Object
    SunExposed,              !- Sun Exposure
    WindExposed,             !- Wind Exposure
    ,                        !- View Factor to Ground
    4,                       !- Number of Vertices
    0,9.09981820971244,0,0,0,0,0,0,0.0101,0,9.09981820971244,0.0101;    
    
BuildingSurface:Detailed,
    BGWall_lower_sdl,                  !- Name
    Wall,                    !- Surface Type
    Basement Wall,           !- Construction Name
    unheatedbsmt_unit1,              !- Zone Name
	,                        !- Space Name
    Ground,                !- Outside Boundary Condition
    ,                        !- Outside Boundary Condition Object
    NoSun,  !- Sun Exposure
    NoWind,  !- Wind Exposure
    ,                        !- View Factor to Ground
    4,                       !- Number of Vertices
    0,9.09981820971244,-2.12404634146341,0,0,-2.12404634146341,0,0,0,0,9.09981820971244,0;        

    
  BuildingSurface:Detailed,
    Extfloor_unit1,  !- Name
    Floor,  !- Surface Type
    Interior Floor,  !- Construction Name
    unheatedbsmt_unit1,  !- Zone Name
	,                        !- Space Name
    Ground,  !- Outside Boundary Condition
    ,  !- Outside Boundary Condition Object
    NoSun,  !- Sun Exposure
    NoWind,  !- Wind Exposure
    0.0,  !- View Factor to Ground
    4,  !- Number of Vertices
    0,0,-2.12404634146341,0,9.09981820971244,-2.12404634146341,12.1330909462833,9.09981820971244,-2.12404634146341,12.1330909462833,0,-2.12404634146341;


BuildingSurface:Detailed,
    Floor_garage1,  !- Name
    Floor,  !- Surface Type
    Interior Floor,  !- Construction Name
    garage1,  !- Zone Name
	,                        !- Space Name
    GroundSlabPreprocessorAverage,  !- Outside Boundary Condition
    surfPropOthSdCoefSlabAverage,  !- Outside Boundary Condition Object
    NoSun,  !- Sun Exposure
    NoWind,  !- Wind Exposure
    0.0,  !- View Factor to Ground
    4,  !- Number of Vertices
    0,0,0.0101,0,6.096,0.0101,6.096,6.096,0.0101,6.096,0,0.0101;   
    
    
Door,
    Door_ldb_unit1,	!- Name
    Exterior Door,   	!- Construction Name
    Wall_ldb_1.unit1,	!- Building Surface Name
    1,		!- Multiplier
    0.5,	!- Starting X coordinate
    0,	!- Starting Z coordinate
    1.74190122145513,	!- Length
    2.13414634146341;	!- Height
    
    
Door:Interzone,
    int_door_garage1,	!- Name
    Exterior Door,   	!- Construction Name
    Wall_ldb_1.garage1,	!- Building Surface Name
    garage1, !- Outside Boundary Condition Object
    1,		!- Multiplier
    0.5,	!- Starting X coordinate
    0,	!- Starting Z coordinate
    0.9144,	!- Length
    2.13414634146341;	!- Height

Door,
    door_garage1,	!- Name
    Exterior Door,   	!- Construction Name
    Wall_ldf_1.garage1,	!- Building Surface Name
    1,		!- Multiplier
    0.6096,	!- Starting X coordinate
    0,	!- Starting Z coordinate
    4.8768,	!- Length
    2.13414634146341;	!- Height
    



!-   ===========  ALL OBJECTS IN CLASS: WINDOWPROPERTY:SHADINGCONTROL ===========

  WindowShadingControl,
    Shades-living_unit1,     !- Name
    living_unit1,            !- Zone Name
    1,                       !- Shading Control Sequence Number
    InteriorBlind,           !- Shading Type
    window_w_blinds,         !- Construction with Shading Name
    OnIfScheduleAllows,      !- Shading Control Type
    shading_2012iecc,        !- Schedule Name
    ,                        !- Setpoint {W/m2, W or deg C}
    Yes,                     !- Shading Control Is Scheduled
    No,                      !- Glare Control Is Active
    ,                        !- Shading Device Material Name
    ,                        !- Type of Slat Angle Control for Blinds
    ,                        !- Slat Angle Schedule Name
    ,                        !- Setpoint 2 {W/m2 or deg C}
    ,                        !- Daylighting Control Object Name
    Sequential,              !- Multiple Surface Control Type

    Window_ldf_1.unit1,      !- Fenestration Surface 1 Name
    Window_ldb_1.unit1,      !- Fenestration Surface 2 Name
    Window_sdr_1.unit1,      !- Fenestration Surface 3 Name
    Window_sdl_1.unit1,      !- Fenestration Surface 4 Name
    Window_ldf_2.unit1,      !- Fenestration Surface 5 Name
    Window_ldb_2.unit1,      !- Fenestration Surface 6 Name