!-Generator IDFEditor 1.49
!-Option SortedOrder

!-NOTE: All comments with '!-' are ignored by the IDFEditor and are generated automatically.
!-      Use '!' comments if they need to be retained when using the IDFEditor.


!-   ===========  ALL OBJECTS IN CLASS: VERSION ===========

! RefBldgMediumOfficeNew2004_Chicago.idf
!
! This example file is based on Version 1.3_5.0 and was transitioned to Version 6.0 using the transition utility
!
! DOE Commercial Reference Building
! Medium office, new construction 90.1-2004
! Version 1.3_5.0
! EnergyPlus Version 6.0
! ASHRAE Standards 90.1-2004 and 62-1999
!
! Description:  Three story, 15 zone office building.
! Form:         Area = 4,982 m2 (53,628 ft2); Number of Stories = 3; Shape = rectangle, Aspect ratio = 1.5
! Envelope:     Envelope thermal properties vary with climate according to ASHRAE Standard 90.1-2004.
!               Opaque constructions: steel frame walls; built-up flat roof (insulation above deck); slab-on-grade floor
!               Windows: window-to-wall ratio = 33.0%, equal distribution of windows
!               Infiltration in perimeter zones only
!                            = 0.4 cfm/ft2 above grade wall area at 0.3 in wc (75 Pa) adjusted to 0.016 in wc (4 Pa).
!                              25% of full value when ventilation system on.
!
! HVAC:         Packaged MZVAV with plenum zones, gas furnace, electric reheat
!               Economizer per 90.1-2004
!
! Int. gains:   lights = 10.76 W/m2 (1.0 W/ft2) (building area method);
!               elec. plug loads = 10.76 W/m2 (1.0 W/ft2)
!               gas plug load = 0 W/m2 (0 W/ft2)
!               people = 268 total; 5.38/100 m2 (5.0/1000 ft2)
!               elevators = 2 @ 20 HP each, 91% motor efficiency
!
! Detached Shading:               None
! Daylight:                       None
! Natural Ventilation:            None
! Zonal Equipment:                None
! Air Primary Loops:              VAV with electric reheat
! Plant Loops:                    SHWSys1
! System Equipment Autosize:      Yes
! Purchased Cooling:              None
! Purchased Heating:              None
! Coils:                          Coil:Cooling:DX:TwoSpeed; Coil:Heating:Fuel; Coil:Heating:Electric
! Pumps:                          Yes
! Boilers:                        None
! Chillers:                       None
!***** NOTICE *****
!***** The Reference Buildings were prepared as an account of work sponsored by an *****
!***** agency of the United States government. Neither the United States *****
!***** government nor any agency thereof, nor any of their employees, makes *****
!***** any warranty, express or implied, or assumes any legal liability or *****
!***** responsibility for the accuracy, completeness, or usefulness of any *****
!***** information, apparatus, product, or process disclosed, or represents *****
!***** that its use would not infringe privately owned rights. Reference *****
!***** herein to any specific commercial product, process, or service by *****
!***** trade name, trademark, manufacturer, or otherwise does not necessarily *****
!***** constitute or imply its endorsement, recommendation, or favoring by *****
!***** the United States government or any agency thereof. The views and *****
!***** opinions of authors expressed herein do not necessarily state or *****
!***** reflect those of the United States government or any agency thereof. *****
!***** Access to and use of the Reference Buildings imposes the following obligations *****
!***** on the user. The user agrees to credit DOE, NREL, PNNL, and LBNL in *****
!***** any publication(s) that that result from the use of Reference Buildings. *****
!***** However, the names of DOE/NREL/PNNL/LBNL may not be used in any *****
!***** advertising or publicity that implies endorsement or promotion of any *****
!***** products, services or commercial entities. *****
! Reference citation for the Commercial Reference Buildings:
! Deru, M.; Field, K.; Studer, D.; Benne, K.; Griffith, B.; Torcellini, P;
! Halverson, M.; Winiarski, D.; Liu, B.; Rosenberg, M.; Huang, J.;
! Yazdanian, M.; Crawley, D. (2010).
! U.S. Department of Energy Commercial Reference Building Models of the National Building Stock.
! Washington, DC: U.S. Department of Energy, Energy Efficiency and
! Renewable Energy, Office of Building Technologies.
! ***GENERAL SIMULATION PARAMETERS***
! Number of Zones: 18
Version,
8.7;                     !- Version Identifier


!-   ===========  ALL OBJECTS IN CLASS: SIMULATIONCONTROL ===========

SimulationControl,
YES,                     !- Do Zone Sizing Calculation
YES,                     !- Do System Sizing Calculation
YES,                     !- Do Plant Sizing Calculation
No,                      !- Run Simulation for Sizing Periods
Yes,                     !- Run Simulation for Weather File Run Periods
Yes;                     !- Do HVAC Sizing Simulation for Sizing Periods


!-   ===========  ALL OBJECTS IN CLASS: BUILDING ===========

Building,
Ref Bldg Medium Office New2004_v1.3_5.0,  !- Name
0.0000,                  !- North Axis {deg}
City,                    !- Terrain
0.0400,                  !- Loads Convergence Tolerance Value
0.2000,                  !- Temperature Convergence Tolerance Value {deltaC}
FullInteriorAndExterior, !- Solar Distribution
25,                      !- Maximum Number of Warmup Days
6;                       !- Minimum Number of Warmup Days


!-   ===========  ALL OBJECTS IN CLASS: SHADOWCALCULATION ===========

ShadowCalculation,
AverageOverDaysInFrequency,  !- Calculation Method
7,                       !- Calculation Frequency
15000;                   !- Maximum Figures in Shadow Overlap Calculations


!-   ===========  ALL OBJECTS IN CLASS: SURFACECONVECTIONALGORITHM:INSIDE ===========

! ***MISC SIMULATION PARAMETERS***
SurfaceConvectionAlgorithm:Inside,
TARP;                    !- Algorithm


!-   ===========  ALL OBJECTS IN CLASS: SURFACECONVECTIONALGORITHM:OUTSIDE ===========

SurfaceConvectionAlgorithm:Outside,
DOE-2;                   !- Algorithm


!-   ===========  ALL OBJECTS IN CLASS: HEATBALANCEALGORITHM ===========

HeatBalanceAlgorithm,
ConductionTransferFunction,  !- Algorithm
200.0000;                !- Surface Temperature Upper Limit {C}


!-   ===========  ALL OBJECTS IN CLASS: ZONEAIRHEATBALANCEALGORITHM ===========

ZoneAirHeatBalanceAlgorithm,
AnalyticalSolution;      !- Algorithm


!-   ===========  ALL OBJECTS IN CLASS: TIMESTEP ===========

Timestep,
6;                       !- Number of Timesteps per Hour


!-   ===========  ALL OBJECTS IN CLASS: CONVERGENCELIMITS ===========

ConvergenceLimits,
2,                       !- Minimum System Timestep {minutes}
25;                      !- Maximum HVAC Iterations


!-   ===========  ALL OBJECTS IN CLASS: SITE:LOCATION ===========

! WeatherFileName=USA_IL_Chicago-OHare_TMY2.epw
Site:Location,
USA IL-CHICAGO-OHARE,    !- Name
41.77,                   !- Latitude {deg}
-87.75,                  !- Longitude {deg}
-6.0,                    !- Time Zone {hr}
190;                     !- Elevation {m}


!-   ===========  ALL OBJECTS IN CLASS: SIZINGPERIOD:WEATHERFILEDAYS ===========

SizingPeriod:WeatherFileDays,
CDD,                     !- Name
1,                       !- Begin Month
21,                      !- Begin Day of Month
1,                       !- End Month
21,                      !- End Day of Month
Monday,                  !- Day of Week for Start Day
Yes,                     !- Use Weather File Daylight Saving Period
Yes;                     !- Use Weather File Rain and Snow Indicators

SizingPeriod:WeatherFileDays,
HDD,                     !- Name
7,                       !- Begin Month
21,                      !- Begin Day of Month
7,                       !- End Month
21,                      !- End Day of Month
Monday,                  !- Day of Week for Start Day
Yes,                     !- Use Weather File Daylight Saving Period
Yes;                     !- Use Weather File Rain and Snow Indicators


!-   ===========  ALL OBJECTS IN CLASS: RUNPERIOD ===========

RunPeriod,
annual,                  !- Name
1,                       !- Begin Month
1,                       !- Begin Day of Month
12,                      !- End Month
31,                      !- End Day of Month
Sunday,                  !- Day of Week for Start Day
No,                      !- Use Weather File Holidays and Special Days
No,                      !- Use Weather File Daylight Saving Period
No,                      !- Apply Weekend Holiday Rule
Yes,                     !- Use Weather File Rain Indicators
Yes,                     !- Use Weather File Snow Indicators
1.0000;                  !- Number of Times Runperiod to be Repeated


!-   ===========  ALL OBJECTS IN CLASS: RUNPERIODCONTROL:SPECIALDAYS ===========

RunPeriodControl:SpecialDays,
New Years Day,           !- Name
January 1,               !- Start Date
1,                       !- Duration {days}
Holiday;                 !- Special Day Type

RunPeriodControl:SpecialDays,
Veterans Day,            !- Name
November 11,             !- Start Date
1,                       !- Duration {days}
Holiday;                 !- Special Day Type

RunPeriodControl:SpecialDays,
Christmas,               !- Name
December 25,             !- Start Date
1,                       !- Duration {days}
Holiday;                 !- Special Day Type

RunPeriodControl:SpecialDays,
Independence Day,        !- Name
July 4,                  !- Start Date
1,                       !- Duration {days}
Holiday;                 !- Special Day Type

RunPeriodControl:SpecialDays,
MLK Day,                 !- Name
3rd Monday in January,   !- Start Date
1,                       !- Duration {days}
Holiday;                 !- Special Day Type

RunPeriodControl:SpecialDays,
Presidents Day,          !- Name
3rd Monday in February,  !- Start Date
1,                       !- Duration {days}
Holiday;                 !- Special Day Type

RunPeriodControl:SpecialDays,
Memorial Day,            !- Name
Last Monday in May,      !- Start Date
1,                       !- Duration {days}
Holiday;                 !- Special Day Type

RunPeriodControl:SpecialDays,
Labor Day,               !- Name
1st Monday in September, !- Start Date
1,                       !- Duration {days}
Holiday;                 !- Special Day Type

RunPeriodControl:SpecialDays,
Columbus Day,            !- Name
2nd Monday in October,   !- Start Date
1,                       !- Duration {days}
Holiday;                 !- Special Day Type

RunPeriodControl:SpecialDays,
Thanksgiving,            !- Name
4th Thursday in November,!- Start Date
1,                       !- Duration {days}
Holiday;                 !- Special Day Type


!-   ===========  ALL OBJECTS IN CLASS: RUNPERIODCONTROL:DAYLIGHTSAVINGTIME ===========

! ***HOLIDAYS & DAYLIGHT SAVINGS***
RunPeriodControl:DaylightSavingTime,
2nd Sunday in March,     !- Start Date
1st Sunday in November;  !- End Date


!-   ===========  ALL OBJECTS IN CLASS: SITE:GROUNDTEMPERATURE:BUILDINGSURFACE ===========

Site:GroundTemperature:BuildingSurface,
4.4,                     !- January Ground Temperature {C}
3.3,                     !- February Ground Temperature {C}
2.3,                     !- March Ground Temperature {C}
1.8,                     !- April Ground Temperature {C}
2,                       !- May Ground Temperature {C}
4,                       !- June Ground Temperature {C}
6.8,                     !- July Ground Temperature {C}
9.3,                     !- August Ground Temperature {C}
10.1,                    !- September Ground Temperature {C}
9.6,                     !- October Ground Temperature {C}
7.8,                     !- November Ground Temperature {C}
6;                       !- December Ground Temperature {C}


!-   ===========  ALL OBJECTS IN CLASS: SITE:GROUNDTEMPERATURE:DEEP ===========

Site:GroundTemperature:Deep,
6.1,                     !- January Deep Ground Temperature {C}
6.1,                     !- February Deep Ground Temperature {C}
6.1,                     !- March Deep Ground Temperature {C}
6.1,                     !- April Deep Ground Temperature {C}
6.1,                     !- May Deep Ground Temperature {C}
6.1,                     !- June Deep Ground Temperature {C}
6.1,                     !- July Deep Ground Temperature {C}
6.1,                     !- August Deep Ground Temperature {C}
6.1,                     !- September Deep Ground Temperature {C}
6.1,                     !- October Deep Ground Temperature {C}
6.1,                     !- November Deep Ground Temperature {C}
6.1;                     !- December Deep Ground Temperature {C}


!-   ===========  ALL OBJECTS IN CLASS: SITE:WATERMAINSTEMPERATURE ===========

Site:WaterMainsTemperature,
CORRELATION,             !- Calculation Method
,                        !- Temperature Schedule Name
9.69,                    !- Annual Average Outdoor Air Temperature {C}
28.10;                   !- Maximum Difference In Monthly Average Outdoor Air Temperatures {deltaC}


!-   ===========  ALL OBJECTS IN CLASS: SCHEDULETYPELIMITS ===========

! ***SCHEDULE TYPES***
ScheduleTypeLimits,
Any Number;              !- Name

ScheduleTypeLimits,
Fraction,                !- Name
0.0,                     !- Lower Limit Value
1.0,                     !- Upper Limit Value
CONTINUOUS;              !- Numeric Type

ScheduleTypeLimits,
Temperature,             !- Name
-60,                     !- Lower Limit Value
200,                     !- Upper Limit Value
CONTINUOUS;              !- Numeric Type

ScheduleTypeLimits,
On/Off,                  !- Name
0,                       !- Lower Limit Value
1,                       !- Upper Limit Value
DISCRETE;                !- Numeric Type

ScheduleTypeLimits,
Control Type,            !- Name
0,                       !- Lower Limit Value
4,                       !- Upper Limit Value
DISCRETE;                !- Numeric Type

ScheduleTypeLimits,
Humidity,                !- Name
10,                      !- Lower Limit Value
90,                      !- Upper Limit Value
CONTINUOUS;              !- Numeric Type

ScheduleTypeLimits,
Number;                  !- Name


!-   ===========  ALL OBJECTS IN CLASS: SCHEDULE:COMPACT ===========

! ***ALWAYS ON SCHEDULE***
Schedule:Compact,
2_1_ALWAYS_ON,             !- Name
On/Off,                  !- Schedule Type Limits Name
Through: 12/31,          !- Field 1
For: AllDays,            !- Field 2
Until: 24:00,            !- Field 3
1;                       !- Field 4

! ***INTERNAL GAINS SCHEDULES***
Schedule:Compact,
2_1_ACTIVITY_SCH,          !- Name
Any Number,              !- Schedule Type Limits Name
Through: 12/31,          !- Field 1
For: AllDays,            !- Field 2
Until: 24:00,            !- Field 3
120.;                    !- Field 4

Schedule:Compact,
2_1_AIR_VELO_SCH,          !- Name
Any Number,              !- Schedule Type Limits Name
Through: 12/31,          !- Field 1
For: AllDays,            !- Field 2
Until: 24:00,            !- Field 3
0.2;                     !- Field 4

Schedule:Compact,
2_1_BLDG_ELEVATORS,        !- Name
Fraction,                !- Schedule Type Limits Name
Through: 12/31,          !- Field 1
For: Weekdays SummerDesignDay,  !- Field 2
Until: 07:00,            !- Field 3
0.0,                     !- Field 4
Until: 08:00,            !- Field 5
0.35,                    !- Field 6
Until: 09:00,            !- Field 7
0.69,                    !- Field 8
Until: 10:00,            !- Field 9
0.43,                    !- Field 10
Until: 11:00,            !- Field 11
0.37,                    !- Field 12
Until: 12:00,            !- Field 13
0.43,                    !- Field 14
Until: 13:00,            !- Field 15
0.58,                    !- Field 16
Until: 14:00,            !- Field 17
0.48,                    !- Field 18
Until: 15:00,            !- Field 19
0.37,                    !- Field 20
Until: 16:00,            !- Field 21
0.37,                    !- Field 22
Until: 17:00,            !- Field 23
0.46,                    !- Field 24
Until: 18:00,            !- Field 25
0.62,                    !- Field 26
Until: 19:00,            !- Field 27
0.12,                    !- Field 28
Until: 20:00,            !- Field 29
0.04,                    !- Field 30
Until: 21:00,            !- Field 31
0.04,                    !- Field 32
Until: 24:00,            !- Field 33
0.00,                    !- Field 34
For: Saturday WinterDesignDay,  !- Field 35
Until: 07:00,            !- Field 36
0.0,                     !- Field 37
Until: 08:00,            !- Field 38
0.16,                    !- Field 39
Until: 09:00,            !- Field 40
0.14,                    !- Field 41
Until: 10:00,            !- Field 42
0.21,                    !- Field 43
Until: 11:00,            !- Field 44
0.18,                    !- Field 45
Until: 12:00,            !- Field 46
0.25,                    !- Field 47
Until: 13:00,            !- Field 48
0.21,                    !- Field 49
Until: 14:00,            !- Field 50
0.13,                    !- Field 51
Until: 15:00,            !- Field 52
0.08,                    !- Field 53
Until: 16:00,            !- Field 54
0.04,                    !- Field 55
Until: 17:00,            !- Field 56
0.05,                    !- Field 57
Until: 18:00,            !- Field 58
0.06,                    !- Field 59
Until: 24:00,            !- Field 60
0.00,                    !- Field 61
For: Sunday Holidays AllOtherDays,  !- Field 62
Until: 24:00,            !- Field 63
0.0;                     !- Field 64

Schedule:Compact,
2_1_BLDG_OCC_SCH,          !- Name
Fraction,                !- Schedule Type Limits Name
Through: 12/31,          !- Field 1
For: SummerDesignDay,    !- Field 2
Until: 06:00,            !- Field 3
0.0,                     !- Field 4
Until: 22:00,            !- Field 5
1.0,                     !- Field 6
Until: 24:00,            !- Field 7
0.05,                    !- Field 8
For: Weekdays,           !- Field 9
Until: 06:00,            !- Field 10
0.0,                     !- Field 11
Until: 07:00,            !- Field 12
0.1,                     !- Field 13
Until: 08:00,            !- Field 14
0.2,                     !- Field 15
Until: 12:00,            !- Field 16
0.95,                    !- Field 17
Until: 13:00,            !- Field 18
0.5,                     !- Field 19
Until: 17:00,            !- Field 20
0.95,                    !- Field 21
Until: 18:00,            !- Field 22
0.7,                     !- Field 23
Until: 20:00,            !- Field 24
0.4,                     !- Field 25
Until: 22:00,            !- Field 26
0.1,                     !- Field 27
Until: 24:00,            !- Field 28
0.05,                    !- Field 29
For: Saturday,           !- Field 30
Until: 06:00,            !- Field 31
0.0,                     !- Field 32
Until: 08:00,            !- Field 33
0.1,                     !- Field 34
Until: 14:00,            !- Field 35
0.5,                     !- Field 36
Until: 17:00,            !- Field 37
0.1,                     !- Field 38
Until: 24:00,            !- Field 39
0.0,                     !- Field 40
For: AllOtherDays,       !- Field 41
Until: 24:00,            !- Field 42
0.0;                     !- Field 43

Schedule:Compact,
2_1_BLDG_LIGHT_SCH,        !- Name
Fraction,                !- Schedule Type Limits Name
Through: 12/31,          !- Field 1
For: Weekdays,           !- Field 2
Until: 05:00,            !- Field 3
0.05,                    !- Field 4
Until: 07:00,            !- Field 5
0.1,                     !- Field 6
Until: 08:00,            !- Field 7
0.3,                     !- Field 8
Until: 17:00,            !- Field 9
0.9,                     !- Field 10
Until: 18:00,            !- Field 11
0.7,                     !- Field 12
Until: 20:00,            !- Field 13
0.5,                     !- Field 14
Until: 22:00,            !- Field 15
0.3,                     !- Field 16
Until: 23:00,            !- Field 17
0.1,                     !- Field 18
Until: 24:00,            !- Field 19
0.05,                    !- Field 20
For: Saturday,           !- Field 21
Until: 06:00,            !- Field 22
0.05,                    !- Field 23
Until: 08:00,            !- Field 24
0.1,                     !- Field 25
Until: 14:00,            !- Field 26
0.5,                     !- Field 27
Until: 17:00,            !- Field 28
0.15,                    !- Field 29
Until: 24:00,            !- Field 30
0.05,                    !- Field 31
For: SummerDesignDay,    !- Field 32
Until: 24:00,            !- Field 33
1.0,                     !- Field 34
For: WinterDesignDay,    !- Field 35
Until: 24:00,            !- Field 36
0.0,                     !- Field 37
For: AllOtherDays,       !- Field 38
Until: 24:00,            !- Field 39
0.05;                    !- Field 40

Schedule:Compact,
2_1_BLDG_EQUIP_SCH,        !- Name
Fraction,                !- Schedule Type Limits Name
Through: 12/31,          !- Field 1
For: Weekdays,           !- Field 2
Until: 08:00,            !- Field 3
0.40,                    !- Field 4
Until: 12:00,            !- Field 5
0.90,                    !- Field 6
Until: 13:00,            !- Field 7
0.80,                    !- Field 8
Until: 17:00,            !- Field 9
0.90,                    !- Field 10
Until: 18:00,            !- Field 11
0.80,                    !- Field 12
Until: 20:00,            !- Field 13
0.60,                    !- Field 14
Until: 22:00,            !- Field 15
0.50,                    !- Field 16
Until: 24:00,            !- Field 17
0.40,                    !- Field 18
For: Saturday,           !- Field 19
Until: 06:00,            !- Field 20
0.30,                    !- Field 21
Until: 08:00,            !- Field 22
0.4,                     !- Field 23
Until: 14:00,            !- Field 24
0.5,                     !- Field 25
Until: 17:00,            !- Field 26
0.35,                    !- Field 27
Until: 24:00,            !- Field 28
0.30,                    !- Field 29
For: SummerDesignDay,    !- Field 30
Until: 24:00,            !- Field 31
1.0,                     !- Field 32
For: WinterDesignDay,    !- Field 33
Until: 24:00,            !- Field 34
0.0,                     !- Field 35
For: AllOtherDays,       !- Field 36
Until: 24:00,            !- Field 37
0.30;                    !- Field 38

Schedule:Compact,
2_1_CLOTHING_SCH,          !- Name
Any Number,              !- Schedule Type Limits Name
Through: 04/30,          !- Field 1
For: AllDays,            !- Field 2
Until: 24:00,            !- Field 3
1.0,                     !- Field 4
Through: 09/30,          !- Field 5
For: AllDays,            !- Field 6
Until: 24:00,            !- Field 7
0.5,                     !- Field 8
Through: 12/31,          !- Field 9
For: AllDays,            !- Field 10
Until: 24:00,            !- Field 11
1.0;                     !- Field 12

Schedule:Compact,
2_1_INFIL_QUARTER_ON_SCH,  !- Name
Fraction,                !- Schedule Type Limits Name
Through: 12/31,          !- Field 1
For: Weekdays SummerDesignDay,  !- Field 2
Until: 06:00,            !- Field 3
1.0,                     !- Field 4
Until: 22:00,            !- Field 5
0.25,                    !- Field 6
Until: 24:00,            !- Field 7
1.0,                     !- Field 8
For: Saturday WinterDesignDay,  !- Field 9
Until: 06:00,            !- Field 10
1.0,                     !- Field 11
Until: 18:00,            !- Field 12
0.25,                    !- Field 13
Until: 24:00,            !- Field 14
1.0,                     !- Field 15
For: Sunday Holidays AllOtherDays,  !- Field 16
Until: 24:00,            !- Field 17
1.0;                     !- Field 18

Schedule:Compact,
2_1_WORK_EFF_SCH,          !- Name
Fraction,                !- Schedule Type Limits Name
Through: 12/31,          !- Field 1
For: AllDays,            !- Field 2
Until: 24:00,            !- Field 3
0.0;                     !- Field 4

! ***SCHEDULES***
Schedule:Compact,
2_1_Dual Zone Control Type Sched,  !- Name
Control Type,            !- Schedule Type Limits Name
Through: 12/31,          !- Field 1
For: AllDays,            !- Field 2
Until: 24:00,            !- Field 3
4;                       !- Field 4

Schedule:Compact,
2_1_CLGSETP_SCH,           !- Name
Temperature,             !- Schedule Type Limits Name
Through: 12/31,          !- Field 1
For: Weekdays SummerDesignDay,  !- Field 2
Until: 06:00,            !- Field 3
28,                      !- Field 4
Until: 22:00,            !- Field 5
25,                      !- Field 6
Until: 24:00,            !- Field 7
28,                      !- Field 8
For: Saturday,           !- Field 9
Until: 06:00,            !- Field 10
28,                      !- Field 11
Until: 18:00,            !- Field 12
25,                      !- Field 13
Until: 24:00,            !- Field 14
28,                      !- Field 15
For WinterDesignDay,     !- Field 16
Until: 24:00,            !- Field 17
28,                      !- Field 18
For: AllOtherDays,       !- Field 19
Until: 24:00,            !- Field 20
28;                      !- Field 21

Schedule:Compact,
2_1_HTGSETP_SCH,           !- Name
Temperature,             !- Schedule Type Limits Name
Through: 12/31,          !- Field 1
For: Weekdays,           !- Field 2
Until: 06:00,            !- Field 3
15.6,                    !- Field 4
Until: 22:00,            !- Field 5
20,                      !- Field 6
Until: 24:00,            !- Field 7
15.6,                    !- Field 8
For SummerDesignDay,     !- Field 9
Until: 24:00,            !- Field 10
15.6,                    !- Field 11
For: Saturday,           !- Field 12
Until: 06:00,            !- Field 13
15.6,                    !- Field 14
Until: 18:00,            !- Field 15
20,                      !- Field 16
Until: 24:00,            !- Field 17
15.6,                    !- Field 18
For: WinterDesignDay,    !- Field 19
Until: 24:00,            !- Field 20
20,                      !- Field 21
For: AllOtherDays,       !- Field 22
Until: 24:00,            !- Field 23
15.6;                    !- Field 24

Schedule:Compact,
2_1_HVACOperationSchd,     !- Name
On/Off,                  !- Schedule Type Limits Name
Through: 12/31,          !- Field 1
For: Weekdays SummerDesignDay,  !- Field 2
Until: 06:00,            !- Field 3
0.0,                     !- Field 4
Until: 22:00,            !- Field 5
1.0,                     !- Field 6
Until: 24:00,            !- Field 7
0.0,                     !- Field 8
For: Saturday WinterDesignDay,  !- Field 9
Until: 06:00,            !- Field 10
0.0,                     !- Field 11
Until: 18:00,            !- Field 12
1.0,                     !- Field 13
Until: 24:00,            !- Field 14
0.0,                     !- Field 15
For: AllOtherDays,       !- Field 16
Until: 24:00,            !- Field 17
0.0;                     !- Field 18

Schedule:Compact,
2_1_MinOA_MotorizedDamper_Sched,  !- Name
Fraction,                !- Schedule Type Limits Name
Through: 12/31,          !- Field 1
For: Weekdays SummerDesignDay,  !- Field 2
Until: 07:00,            !- Field 3
0.0,                     !- Field 4
Until: 22:00,            !- Field 5
1.0,                     !- Field 6
Until: 24:00,            !- Field 7
0.0,                     !- Field 8
For: Saturday WinterDesignDay,  !- Field 9
Until: 07:00,            !- Field 10
0.0,                     !- Field 11
Until: 18:00,            !- Field 12
1.0,                     !- Field 13
Until: 24:00,            !- Field 14
0.0,                     !- Field 15
For: AllOtherDays,       !- Field 16
Until: 24:00,            !- Field 17
0.0;                     !- Field 18

Schedule:Compact,
2_1_Seasonal-Reset-Supply-Air-Temp-Sch,  !- Name
Temperature,             !- Schedule Type Limits Name
Through: 12/31,          !- Field 1
For: AllDays,            !- Field 2
Until: 24:00,            !- Field 3
12.8;                    !- Field 4

! ***SWH SCHEDULES***
Schedule:Compact,
2_1_BLDG_SWH_SCH,          !- Name
Fraction,                !- Schedule Type Limits Name
Through: 12/31,          !- Field 1
For: Weekdays SummerDesignDay,  !- Field 2
Until: 05:00,            !- Field 3
0.05,                    !- Field 4
Until: 06:00,            !- Field 5
0.08,                    !- Field 6
Until: 07:00,            !- Field 7
0.07,                    !- Field 8
Until: 08:00,            !- Field 9
0.19,                    !- Field 10
Until: 09:00,            !- Field 11
0.35,                    !- Field 12
Until: 10:00,            !- Field 13
0.38,                    !- Field 14
Until: 11:00,            !- Field 15
0.39,                    !- Field 16
Until: 12:00,            !- Field 17
0.47,                    !- Field 18
Until: 13:00,            !- Field 19
0.57,                    !- Field 20
Until: 14:00,            !- Field 21
0.54,                    !- Field 22
Until: 15:00,            !- Field 23
0.34,                    !- Field 24
Until: 16:00,            !- Field 25
0.33,                    !- Field 26
Until: 17:00,            !- Field 27
0.44,                    !- Field 28
Until: 18:00,            !- Field 29
0.26,                    !- Field 30
Until: 19:00,            !- Field 31
0.21,                    !- Field 32
Until: 20:00,            !- Field 33
0.15,                    !- Field 34
Until: 21:00,            !- Field 35
0.17,                    !- Field 36
Until: 22:00,            !- Field 37
0.08,                    !- Field 38
Until: 24:00,            !- Field 39
0.05,                    !- Field 40
For: Saturday WinterDesignDay,  !- Field 41
Until: 05:00,            !- Field 42
0.05,                    !- Field 43
Until: 06:00,            !- Field 44
0.08,                    !- Field 45
Until: 07:00,            !- Field 46
0.07,                    !- Field 47
Until: 08:00,            !- Field 48
0.11,                    !- Field 49
Until: 09:00,            !- Field 50
0.15,                    !- Field 51
Until: 10:00,            !- Field 52