!-Generator IDFEditor 1.49
!-Option SortedOrder

!-NOTE: All comments with '!-' are ignored by the IDFEditor and are generated automatically.
!-      Use '!' comments if they need to be retained when using the IDFEditor.


!-   ===========  ALL OBJECTS IN CLASS: VERSION ===========

! RefBldgSmallHotelNew2004_Chicago.idf
!
! This example file is based on Version 1.3_5.0 and was transitioned to Version 6.0 using the transition utility
!
! DOE Commercial Reference Building
! Small Hotel, new construction 90.1-2004
! Version 1.3_5.0
! EnergyPlus Version 6.0
! ASHRAE Standards 90.1-2004 and 62-1999
!
! Description:  Four story motel, 74 rooms plus laundry facility
! Form:         Area = 4,014 m2 (43,200 ft2); Number of Stories = 4; Shape = rectangle; Aspect ratio = 3.0
! Envelope:     Envelope thermal properties vary with climate according to ASHRAE Standard 90.1-2004 residential.
!               Opaque constructions: Steel frame walls; Insulation entirely above deck; slab-on-grade floor
!               Windows: window-to-wall ratio = 10.9%,
!               Infiltration in perimeter zones only
!                            = 0.4 cfm/ft2 above grade wall area at 0.3 in wc (75 Pa) adjusted to 0.016 in wc (4 Pa).
!                              25% of full value when ventilation system on.
! HVAC:         PTAC for guest rooms, PSZ-AC for common areas, Elec. unit heaters in stairs and storage areas
!               Economizers on common area systems per 90.1-2004
!               No economizers on guest room PTACs
!
! Int. gains:   W/m2 (W/ft2)  lights          elec plug       gas plug
!               Rooms         11.8 (1.1)      14.3 (1.3)      0
!               Corridor      5.38 (0.5)      0.0 (0)         0
!               Front Lounge  11.8 (1.1)      15.4 (1.4)      0
!               Exercise Rm   9.70 (0.9)      11.5 (1.1)      0
!               Office        11.8 (1.1)      12.9 (1.2)      0
!               Laundry       6.5 (0.6)       437 (40.6)      184.3 (17.1)
! Elevators:    2 @ 20 HP each, 91% motor efficiency
!
! Detached Shading:               None
! Daylight:                       None
! Natural Ventilation:            None
! Zonal Equipment:                ZoneHVAC:PackagedTerminalAirConditioner; ZoneHVAC:UnitHeater
! Air Primary Loops:              PSZ-AC:1; PSZ-AC:2...PSZ-AC:12
! Plant Loops:                    SHWSys1
! System Equipment Autosize:      Yes
! Purchased Cooling:              None
! Purchased Heating:              None
! Coils:                          Coil:Cooling:DX:SingleSpeed; Coil:Heating:Electric; Coil:Heating:Fuel
! Pumps:                          None
! Boilers:                        None
! Chillers:                       None
!***** NOTICE *****
!***** The Reference Buildings were prepared as an account of work sponsored by an *****
!***** agency of the United States government. Neither the United States *****
!***** government nor any agency thereof, nor any of their employees, makes *****
!***** any warranty, express or implied, or assumes any legal liability or *****
!***** responsibility for the accuracy, completeness, or usefulness of any *****
!***** information, apparatus, product, or process disclosed, or represents *****
!***** that its use would not infringe privately owned rights. Reference *****
!***** herein to any specific commercial product, process, or service by *****
!***** trade name, trademark, manufacturer, or otherwise does not necessarily *****
!***** constitute or imply its endorsement, recommendation, or favoring by *****
!***** the United States government or any agency thereof. The views and *****
!***** opinions of authors expressed herein do not necessarily state or *****
!***** reflect those of the United States government or any agency thereof. *****
!***** Access to and use of the Reference Buildings imposes the following obligations *****
!***** on the user. The user agrees to credit DOE, NREL, PNNL, and LBNL in *****
!***** any publication(s) that that result from the use of Reference Buildings. *****
!***** However, the names of DOE/NREL/PNNL/LBNL may not be used in any *****
!***** advertising or publicity that implies endorsement or promotion of any *****
!***** products, services or commercial entities. *****
! Reference citation for the Commercial Reference Buildings:
! Deru, M.; Field, K.; Studer, D.; Benne, K.; Griffith, B.; Torcellini, P;
! Halverson, M.; Winiarski, D.; Liu, B.; Rosenberg, M.; Huang, J.;
! Yazdanian, M.; Crawley, D. (2010).
! U.S. Department of Energy Commercial Reference Building Models of the National Building Stock.
! Washington, DC: U.S. Department of Energy, Energy Efficiency and
! Renewable Energy, Office of Building Technologies.
! ***GENERAL SIMULATION PARAMETERS***
! Number of Zones: 67
Version,
    8.7;                     !- Version Identifier


!-   ===========  ALL OBJECTS IN CLASS: SIMULATIONCONTROL ===========

SimulationControl,
    YES,                     !- Do Zone Sizing Calculation
    YES,                     !- Do System Sizing Calculation
    YES,                     !- Do Plant Sizing Calculation
    No,                      !- Run Simulation for Sizing Periods
    Yes;                     !- Run Simulation for Weather File Run Periods


!-   ===========  ALL OBJECTS IN CLASS: BUILDING ===========

Building,
    Ref Bldg Small Hotel New2004_v1.3_5.0,  !- Name
    0.0000,                  !- North Axis {deg}
    City,                    !- Terrain
    0.0400,                  !- Loads Convergence Tolerance Value
    0.2000,                  !- Temperature Convergence Tolerance Value {deltaC}
    FullInteriorAndExterior, !- Solar Distribution
    25,                      !- Maximum Number of Warmup Days
    6;                       !- Minimum Number of Warmup Days


!-   ===========  ALL OBJECTS IN CLASS: SHADOWCALCULATION ===========

ShadowCalculation,
    AverageOverDaysInFrequency,  !- Calculation Method
    7,                       !- Calculation Frequency
    15000;                   !- Maximum Figures in Shadow Overlap Calculations


!-   ===========  ALL OBJECTS IN CLASS: SURFACECONVECTIONALGORITHM:INSIDE ===========

! ***MISC SIMULATION PARAMETERS***
SurfaceConvectionAlgorithm:Inside,
    AdaptiveConvectionAlgorithm;  !- Algorithm


!-   ===========  ALL OBJECTS IN CLASS: SURFACECONVECTIONALGORITHM:OUTSIDE ===========

SurfaceConvectionAlgorithm:Outside,
    AdaptiveConvectionAlgorithm;  !- Algorithm


!-   ===========  ALL OBJECTS IN CLASS: HEATBALANCEALGORITHM ===========

HeatBalanceAlgorithm,
    ConductionTransferFunction,  !- Algorithm
    200.0000;                !- Surface Temperature Upper Limit {C}


!-   ===========  ALL OBJECTS IN CLASS: ZONEAIRHEATBALANCEALGORITHM ===========

ZoneAirHeatBalanceAlgorithm,
    AnalyticalSolution;      !- Algorithm


!-   ===========  ALL OBJECTS IN CLASS: TIMESTEP ===========

Timestep,
    4;                       !- Number of Timesteps per Hour


!-   ===========  ALL OBJECTS IN CLASS: CONVERGENCELIMITS ===========

ConvergenceLimits,
    2,                       !- Minimum System Timestep {minutes}
    25;                      !- Maximum HVAC Iterations


!-   ===========  ALL OBJECTS IN CLASS: SITE:LOCATION ===========

! WeatherFileName=USA_IL_Chicago-OHare_TMY2.epw
Site:Location,
    USA IL-CHICAGO-OHARE,    !- Name
    41.77,                   !- Latitude {deg}
    -87.75,                  !- Longitude {deg}
    -6.0,                   !- Time Zone {hr}
    190;                     !- Elevation {m}


!-   ===========  ALL OBJECTS IN CLASS: SIZINGPERIOD:WEATHERFILEDAYS ===========

SizingPeriod:WeatherFileDays,
    HDD,                     !- Name
    11,                      !- Begin Month
    20,                      !- Begin Day of Month
    11,                      !- End Month
    20,                      !- End Day of Month
    Monday,                  !- Day of Week for Start Day
    Yes,                     !- Use Weather File Daylight Saving Period
    Yes;                     !- Use Weather File Rain and Snow Indicators

SizingPeriod:WeatherFileDays,
    CDD,                     !- Name
    7,                       !- Begin Month
    21,                      !- Begin Day of Month
    7,                       !- End Month
    21,                      !- End Day of Month
    Monday,                  !- Day of Week for Start Day
    Yes,                     !- Use Weather File Daylight Saving Period
    Yes;                     !- Use Weather File Rain and Snow Indicators

SizingPeriod:WeatherFileDays,
    HDD3,                    !- Name
    12,                      !- Begin Month
    20,                      !- Begin Day of Month
    12,                      !- End Month
    20,                      !- End Day of Month
    Monday,                  !- Day of Week for Start Day
    Yes,                     !- Use Weather File Daylight Saving Period
    Yes;                     !- Use Weather File Rain and Snow Indicators

SizingPeriod:WeatherFileDays,
    CDD2,                    !- Name
    5,                       !- Begin Month
    23,                      !- Begin Day of Month
    5,                       !- End Month
    23,                      !- End Day of Month
    Monday,                  !- Day of Week for Start Day
    Yes,                     !- Use Weather File Daylight Saving Period
    Yes;                     !- Use Weather File Rain and Snow Indicators

SizingPeriod:WeatherFileDays,
    CDD3,                    !- Name
    5,                       !- Begin Month
    30,                      !- Begin Day of Month
    5,                       !- End Month
    30,                      !- End Day of Month
    Monday,                  !- Day of Week for Start Day
    Yes,                     !- Use Weather File Daylight Saving Period
    Yes;                     !- Use Weather File Rain and Snow Indicators


!-   ===========  ALL OBJECTS IN CLASS: RUNPERIOD ===========

RunPeriod,
    ,                        !- Name
    1,                       !- Begin Month
    1,                       !- Begin Day of Month
    12,                      !- End Month
    31,                      !- End Day of Month
    Sunday,                  !- Day of Week for Start Day
    No,                      !- Use Weather File Holidays and Special Days
    No,                      !- Use Weather File Daylight Saving Period
    No,                      !- Apply Weekend Holiday Rule
    Yes,                     !- Use Weather File Rain Indicators
    Yes,                     !- Use Weather File Snow Indicators
    1.0000;                  !- Number of Times Runperiod to be Repeated


!-   ===========  ALL OBJECTS IN CLASS: RUNPERIODCONTROL:SPECIALDAYS ===========

RunPeriodControl:SpecialDays,
    New Years Day,           !- Name
    January 1,               !- Start Date
    1,                       !- Duration {days}
    Holiday;                 !- Special Day Type

RunPeriodControl:SpecialDays,
    Veterans Day,            !- Name
    November 11,             !- Start Date
    1,                       !- Duration {days}
    Holiday;                 !- Special Day Type

RunPeriodControl:SpecialDays,
    Christmas,               !- Name
    December 25,             !- Start Date
    1,                       !- Duration {days}
    Holiday;                 !- Special Day Type

RunPeriodControl:SpecialDays,
    Independence Day,        !- Name
    July 4,                  !- Start Date
    1,                       !- Duration {days}
    Holiday;                 !- Special Day Type

RunPeriodControl:SpecialDays,
    MLK Day,                 !- Name
    3rd Monday in January,   !- Start Date
    1,                       !- Duration {days}
    Holiday;                 !- Special Day Type

RunPeriodControl:SpecialDays,
    Presidents Day,          !- Name
    3rd Monday in February,  !- Start Date
    1,                       !- Duration {days}
    Holiday;                 !- Special Day Type

RunPeriodControl:SpecialDays,
    Memorial Day,            !- Name
    Last Monday in May,      !- Start Date
    1,                       !- Duration {days}
    Holiday;                 !- Special Day Type

RunPeriodControl:SpecialDays,
    Labor Day,               !- Name
    1st Monday in September, !- Start Date
    1,                       !- Duration {days}
    Holiday;                 !- Special Day Type

RunPeriodControl:SpecialDays,
    Columbus Day,            !- Name
    2nd Monday in October,   !- Start Date
    1,                       !- Duration {days}
    Holiday;                 !- Special Day Type

RunPeriodControl:SpecialDays,
    Thanksgiving,            !- Name
    4th Thursday in November,!- Start Date
    1,                       !- Duration {days}
    Holiday;                 !- Special Day Type


!-   ===========  ALL OBJECTS IN CLASS: RUNPERIODCONTROL:DAYLIGHTSAVINGTIME ===========

! ***HOLIDAYS & DAYLIGHT SAVINGS***
RunPeriodControl:DaylightSavingTime,
    2nd Sunday in March,     !- Start Date
    1st Sunday in November;  !- End Date


!-   ===========  ALL OBJECTS IN CLASS: SITE:GROUNDTEMPERATURE:BUILDINGSURFACE ===========

Site:GroundTemperature:BuildingSurface,
    4.4,                     !- January Ground Temperature {C}
    3.3,                     !- February Ground Temperature {C}
    2.3,                     !- March Ground Temperature {C}
    1.8,                     !- April Ground Temperature {C}
    2,                       !- May Ground Temperature {C}
    4,                       !- June Ground Temperature {C}
    6.8,                     !- July Ground Temperature {C}
    9.3,                     !- August Ground Temperature {C}
    10.1,                    !- September Ground Temperature {C}
    9.6,                     !- October Ground Temperature {C}
    7.8,                     !- November Ground Temperature {C}
    6;                       !- December Ground Temperature {C}


!-   ===========  ALL OBJECTS IN CLASS: SITE:WATERMAINSTEMPERATURE ===========

Site:WaterMainsTemperature,
    CORRELATION,             !- Calculation Method
    ,                        !- Temperature Schedule Name
    9.69,                    !- Annual Average Outdoor Air Temperature {C}
    28.10;                   !- Maximum Difference In Monthly Average Outdoor Air Temperatures {deltaC}


!-   ===========  ALL OBJECTS IN CLASS: SCHEDULETYPELIMITS ===========

! ***SCHEDULE TYPES***
ScheduleTypeLimits,
    Any Number;              !- Name

ScheduleTypeLimits,
    Fraction,                !- Name
    0.0,                     !- Lower Limit Value
    1.0,                     !- Upper Limit Value
    CONTINUOUS;              !- Numeric Type

ScheduleTypeLimits,
    Temperature,             !- Name
    -60,                     !- Lower Limit Value
    200,                     !- Upper Limit Value
    CONTINUOUS;              !- Numeric Type

ScheduleTypeLimits,
    On/Off,                  !- Name
    0,                       !- Lower Limit Value
    1,                       !- Upper Limit Value
    DISCRETE;                !- Numeric Type

ScheduleTypeLimits,
    Control Type,            !- Name
    0,                       !- Lower Limit Value
    4,                       !- Upper Limit Value
    DISCRETE;                !- Numeric Type

ScheduleTypeLimits,
    Humidity,                !- Name
    10,                      !- Lower Limit Value
    90,                      !- Upper Limit Value
    CONTINUOUS;              !- Numeric Type

ScheduleTypeLimits,
    Number;                  !- Name


!-   ===========  ALL OBJECTS IN CLASS: SCHEDULE:COMPACT ===========

! ***ALWAYS ON SCHEDULE***
Schedule:Compact,
    ALWAYS_ON,               !- Name
    On/Off,                  !- Schedule Type Limits Name
    Through: 12/31,          !- Field 1
    For: AllDays,            !- Field 2
    Until: 24:00,            !- Field 3
    1;                       !- Field 4

! ***INTERNAL GAINS SCHEDULES***
Schedule:Compact,
    14_ACTIVITY_SCH,         !- Name
    Any Number,              !- Schedule Type Limits Name
    Through: 12/31,          !- Field 1
    For: AllDays,            !- Field 2
    Until: 24:00,            !- Field 3
    120.;                    !- Field 4

Schedule:Compact,
    14_AIR_VELO_SCH,         !- Name
    Any Number,              !- Schedule Type Limits Name
    Through: 12/31,          !- Field 1
    For: AllDays,            !- Field 2
    Until: 24:00,            !- Field 3
    0.2;                     !- Field 4

Schedule:Compact,
    14_BLDG_ELEVATORS,       !- Name
    Fraction,                !- Schedule Type Limits Name
    Through: 12/31,          !- Field 1
    For: AllDays,            !- Field 2
    Until: 04:00,            !- Field 3
    0.05,                    !- Field 4
    Until: 05:00,            !- Field 5
    0.10,                    !- Field 6
    Until: 06:00,            !- Field 7
    0.20,                    !- Field 8
    Until: 07:00,            !- Field 9
    0.40,                    !- Field 10
    Until: 09:00,            !- Field 11
    0.50,                    !- Field 12
    Until: 10:00,            !- Field 13
    0.35,                    !- Field 14
    Until: 16:00,            !- Field 15
    0.15,                    !- Field 16
    Until: 17:00,            !- Field 17
    0.35,                    !- Field 18
    Until: 19:00,            !- Field 19
    0.50,                    !- Field 20
    Until: 21:00,            !- Field 21
    0.40,                    !- Field 22
    Until: 22:00,            !- Field 23
    0.30,                    !- Field 24
    Until: 23:00,            !- Field 25
    0.20,                    !- Field 26
    Until: 24:00,            !- Field 27
    0.10;                    !- Field 28

Schedule:Compact,
    14_BLDG_EQUIP_SCH,       !- Name
    Fraction,                !- Schedule Type Limits Name
    Through: 12/31,          !- Field 1
    For: Weekdays,           !- Field 2
    Until: 01:00,            !- Field 3
    0.3,                     !- Field 4
    Until: 02:00,            !- Field 5
    0.25,                    !- Field 6
    Until: 05:00,            !- Field 7
    0.2,                     !- Field 8
    Until: 06:00,            !- Field 9
    0.3,                     !- Field 10
    Until: 07:00,            !- Field 11
    0.5,                     !- Field 12
    Until: 08:00,            !- Field 13
    0.6,                     !- Field 14
    Until: 10:00,            !- Field 15
    0.5,                     !- Field 16
    Until: 18:00,            !- Field 17
    0.35,                    !- Field 18
    Until: 19:00,            !- Field 19
    0.7,                     !- Field 20
    Until: 20:00,            !- Field 21
    0.9,                     !- Field 22
    Until: 21:00,            !- Field 23
    0.95,                    !- Field 24
    Until: 22:00,            !- Field 25
    0.9,                     !- Field 26
    Until: 23:00,            !- Field 27
    0.7,                     !- Field 28
    Until: 24:00,            !- Field 29
    0.4,                     !- Field 30
    For: Saturday,           !- Field 31
    Until: 02:00,            !- Field 32
    0.3,                     !- Field 33
    Until: 06:00,            !- Field 34
    0.2,                     !- Field 35
    Until: 08:00,            !- Field 36
    0.4,                     !- Field 37
    Until: 10:00,            !- Field 38
    0.5,                     !- Field 39
    Until: 11:00,            !- Field 40
    0.4,                     !- Field 41
    Until: 18:00,            !- Field 42
    0.35,                    !- Field 43
    Until: 19:00,            !- Field 44
    0.7,                     !- Field 45
    Until: 22:00,            !- Field 46
    0.8,                     !- Field 47
    Until: 23:00,            !- Field 48
    0.7,                     !- Field 49
    Until: 24:00,            !- Field 50
    0.4,                     !- Field 51
    For: SummerDesignDay,    !- Field 52
    Until: 24:00,            !- Field 53
    1.0,                     !- Field 54
    For: WinterDesignDay,    !- Field 55
    Until: 24:00,            !- Field 56
    0.0,                     !- Field 57
    For: Sunday Holidays AllOtherDays,  !- Field 58
    Until: 02:00,            !- Field 59
    0.4,                     !- Field 60
    Until: 06:00,            !- Field 61
    0.3,                     !- Field 62
    Until: 07:00,            !- Field 63
    0.4,                     !- Field 64
    Until: 09:00,            !- Field 65
    0.5,                     !- Field 66
    Until: 13:00,            !- Field 67
    0.4,                     !- Field 68
    Until: 18:00,            !- Field 69
    0.3,                     !- Field 70
    Until: 19:00,            !- Field 71
    0.6,                     !- Field 72
    Until: 20:00,            !- Field 73
    0.8,                     !- Field 74
    Until: 21:00,            !- Field 75
    0.9,                     !- Field 76
    Until: 22:00,            !- Field 77
    0.7,                     !- Field 78
    Until: 23:00,            !- Field 79
    0.6,                     !- Field 80
    Until: 24:00,            !- Field 81
    0.4;                     !- Field 82

Schedule:Compact,
    14_BLDG_LIGHT_SCH,       !- Name
    Fraction,                !- Schedule Type Limits Name
    Through: 12/31,          !- Field 1
    For: Weekdays,           !- Field 2
    Until: 01:00,            !- Field 3
    0.2,                     !- Field 4
    Until: 02:00,            !- Field 5
    0.15,                    !- Field 6
    Until: 05:00,            !- Field 7
    0.1,                     !- Field 8
    Until: 06:00,            !- Field 9
    0.2,                     !- Field 10
    Until: 07:00,            !- Field 11
    0.4,                     !- Field 12
    Until: 08:00,            !- Field 13
    0.5,                     !- Field 14
    Until: 10:00,            !- Field 15
    0.4,                     !- Field 16
    Until: 18:00,            !- Field 17
    0.25,                    !- Field 18
    Until: 19:00,            !- Field 19
    0.6,                     !- Field 20
    Until: 20:00,            !- Field 21
    0.8,                     !- Field 22
    Until: 21:00,            !- Field 23
    0.9,                     !- Field 24
    Until: 22:00,            !- Field 25
    0.8,                     !- Field 26
    Until: 23:00,            !- Field 27
    0.6,                     !- Field 28
    Until: 24:00,            !- Field 29
    0.3,                     !- Field 30
    For: Saturday,           !- Field 31
    Until: 02:00,            !- Field 32
    0.2,                     !- Field 33
    Until: 06:00,            !- Field 34
    0.1,                     !- Field 35
    Until: 08:00,            !- Field 36
    0.3,                     !- Field 37
    Until: 10:00,            !- Field 38
    0.4,                     !- Field 39
    Until: 11:00,            !- Field 40
    0.3,                     !- Field 41
    Until: 18:00,            !- Field 42
    0.25,                    !- Field 43
    Until: 19:00,            !- Field 44
    0.6,                     !- Field 45
    Until: 22:00,            !- Field 46
    0.7,                     !- Field 47
    Until: 23:00,            !- Field 48
    0.6,                     !- Field 49
    Until: 24:00,            !- Field 50
    0.3,                     !- Field 51
    For: SummerDesignDay,    !- Field 52
    Until: 24:00,            !- Field 53
    1.0,                     !- Field 54
    For: WinterDesignDay,    !- Field 55
    Until: 24:00,            !- Field 56
    0.0,                     !- Field 57
    For: Sunday Holidays AllOtherDays,  !- Field 58
    Until: 02:00,            !- Field 59
    0.3,                     !- Field 60
    Until: 06:00,            !- Field 61
    0.2,                     !- Field 62
    Until: 07:00,            !- Field 63
    0.3,                     !- Field 64
    Until: 09:00,            !- Field 65
    0.4,                     !- Field 66
    Until: 13:00,            !- Field 67
    0.3,                     !- Field 68
    Until: 18:00,            !- Field 69
    0.2,                     !- Field 70
    Until: 19:00,            !- Field 71
    0.5,                     !- Field 72
    Until: 20:00,            !- Field 73
    0.7,                     !- Field 74
    Until: 21:00,            !- Field 75
    0.8,                     !- Field 76
    Until: 22:00,            !- Field 77
    0.6,                     !- Field 78
    Until: 23:00,            !- Field 79
    0.5,                     !- Field 80
    Until: 24:00,            !- Field 81
    0.3;                     !- Field 82

Schedule:Compact,
    14_BLDG_OCC_SCH,         !- Name
    Fraction,                !- Schedule Type Limits Name
    Through: 12/31,          !- Field 1
    For: Weekdays,           !- Field 2
    Until: 06:00,            !- Field 3
    0.9,                     !- Field 4
    Until: 07:00,            !- Field 5
    0.7,                     !- Field 6
    Until: 09:00,            !- Field 7
    0.4,                     !- Field 8
    Until: 15:00,            !- Field 9
    0.2,                     !- Field 10
    Until: 16:00,            !- Field 11
    0.3,                     !- Field 12
    Until: 19:00,            !- Field 13
    0.5,                     !- Field 14
    Until: 21:00,            !- Field 15
    0.7,                     !- Field 16
    Until: 22:00,            !- Field 17
    0.8,                     !- Field 18
    Until: 24:00,            !- Field 19
    0.9,                     !- Field 20
    For: SummerDesignDay,    !- Field 21
    Until: 24:00,            !- Field 22
    1.0,                     !- Field 23
    For: Saturday,           !- Field 24
    Until: 06:00,            !- Field 25
    0.9,                     !- Field 26
    Until: 07:00,            !- Field 27
    0.7,                     !- Field 28
    Until: 09:00,            !- Field 29
    0.5,                     !- Field 30
    Until: 17:00,            !- Field 31
    0.3,                     !- Field 32
    Until: 18:00,            !- Field 33
    0.5,                     !- Field 34
    Until: 21:00,            !- Field 35
    0.6,                     !- Field 36
    Until: 24:00,            !- Field 37
    0.7,                     !- Field 38
    For: WinterDesignDay,    !- Field 39
    Until: 24:00,            !- Field 40
    0.0,                     !- Field 41
    For: Sunday Holidays AllOtherDays,  !- Field 42
    Until: 08:00,            !- Field 43
    0.7,                     !- Field 44
    Until: 11:00,            !- Field 45
    0.5,                     !- Field 46
    Until: 13:00,            !- Field 47
    0.3,                     !- Field 48
    Until: 16:00,            !- Field 49
    0.2,                     !- Field 50
    Until: 17:00,            !- Field 51
    0.3,                     !- Field 52
    Until: 19:00,            !- Field 53
    0.4,                     !- Field 54
    Until: 21:00,            !- Field 55
    0.6,                     !- Field 56
    Until: 24:00,            !- Field 57
    0.8;                     !- Field 58

Schedule:Compact,
    14_CLOTHING_SCH,         !- Name
    Any Number,              !- Schedule Type Limits Name
    Through: 04/30,          !- Field 1
    For: AllDays,            !- Field 2
    Until: 24:00,            !- Field 3
    1.0,                     !- Field 4
    Through: 09/30,          !- Field 5
    For: AllDays,            !- Field 6
    Until: 24:00,            !- Field 7
    0.5,                     !- Field 8
    Through: 12/31,          !- Field 9
    For: AllDays,            !- Field 10
    Until: 24:00,            !- Field 11
    1.0;                     !- Field 12

Schedule:Compact,
    14_Corridor_Ltg_Sch,     !- Name
    On/Off,                  !- Schedule Type Limits Name
    Through: 12/31,          !- Field 1
    For: AllDays,            !- Field 2
    Until: 24:00,            !- Field 3
    1;                       !- Field 4

Schedule:Compact,
    14_EmployeeLounge_Eqp_Sch,  !- Name
    Fraction,                !- Schedule Type Limits Name
    Through: 12/31,          !- Field 1
    For: Weekdays,           !- Field 2
    Until: 05:00,            !- Field 3
    0.11,                    !- Field 4
    Until: 07:00,            !- Field 5
    0.19,                    !- Field 6
    Until: 08:00,            !- Field 7
    0.25,                    !- Field 8
    Until: 10:00,            !- Field 9
    1.0,                     !- Field 10
    Until: 12:00,            !- Field 11
    0.86,                    !- Field 12
    Until: 13:00,            !- Field 13
    1.0,                     !- Field 14
    Until: 18:00,            !- Field 15
    0.86,                    !- Field 16
    Until: 19:00,            !- Field 17
    0.25,                    !- Field 18
    Until: 20:00,            !- Field 19
    0.19,                    !- Field 20
    Until: 24:00,            !- Field 21
    0.11,                    !- Field 22
    For: Saturday Sunday Holidays,  !- Field 23
    Until: 05:00,            !- Field 24
    0.11,                    !- Field 25
    Until: 07:00,            !- Field 26
    0.19,                    !- Field 27
    Until: 08:00,            !- Field 28
    0.25,                    !- Field 29
    Until: 10:00,            !- Field 30
    1.0,                     !- Field 31
    Until: 12:00,            !- Field 32
    0.86,                    !- Field 33
    Until: 13:00,            !- Field 34
    1.0,                     !- Field 35
    Until: 18:00,            !- Field 36
    0.86,                    !- Field 37
    Until: 19:00,            !- Field 38
    0.25,                    !- Field 39
    Until: 20:00,            !- Field 40
    0.19,                    !- Field 41
    Until: 24:00,            !- Field 42
    0.11,                    !- Field 43