!-Generator IDFEditor 1.49
!-Option OriginalOrderTop UseSpecialFormat

!-NOTE: All comments with '!-' are ignored by the IDFEditor and are generated automatically.
!-      Use '!' comments if they need to be retained when using the IDFEditor.

SizingPeriod:WeatherFileDays,
    HDD,                     !- Name
    11,                      !- Begin Month
    20,                      !- Begin Day of Month
    11,                      !- End Month
    20,                      !- End Day of Month
    Monday,                  !- Day of Week for Start Day
    Yes,                     !- Use Weather File Daylight Saving Period
    Yes;                     !- Use Weather File Rain and Snow Indicators

SizingPeriod:WeatherFileDays,
    CDD,                     !- Name
    7,                       !- Begin Month
    21,                      !- Begin Day of Month
    7,                       !- End Month
    21,                      !- End Day of Month
    Monday,                  !- Day of Week for Start Day
    Yes,                     !- Use Weather File Daylight Saving Period
    Yes;                     !- Use Weather File Rain and Snow Indicators

SizingPeriod:WeatherFileDays,
    HDD3,                    !- Name
    12,                      !- Begin Month
    20,                      !- Begin Day of Month
    12,                      !- End Month
    20,                      !- End Day of Month
    Monday,                  !- Day of Week for Start Day
    Yes,                     !- Use Weather File Daylight Saving Period
    Yes;                     !- Use Weather File Rain and Snow Indicators

SizingPeriod:WeatherFileDays,
    CDD2,                    !- Name
    5,                       !- Begin Month
    23,                      !- Begin Day of Month
    5,                       !- End Month
    23,                      !- End Day of Month
    Monday,                  !- Day of Week for Start Day
    Yes,                     !- Use Weather File Daylight Saving Period
    Yes;                     !- Use Weather File Rain and Snow Indicators

SizingPeriod:WeatherFileDays,
    CDD3,                    !- Name
    5,                       !- Begin Month
    30,                      !- Begin Day of Month
    5,                       !- End Month
    30,                      !- End Day of Month
    Monday,                  !- Day of Week for Start Day
    Yes,                     !- Use Weather File Daylight Saving Period
    Yes;                     !- Use Weather File Rain and Snow Indicators

Site:GroundTemperature:BuildingSurface,4.4,3.3,2.3,1.8,2,4,6.8,9.3,10.1,9.6,7.8,6;

Schedule:Compact,
    12_VentingSched,         !- Name
    Fraction,                !- Schedule Type Limits Name
    Through: 6/30,           !- Field 1
    For: AllDays,            !- Field 2
    Until: 24:00, 0,         !- Field 4
    Through: 9/30,           !- Field 5
    For: AllDays,            !- Field 6
    Until: 24:00, 1,         !- Field 8
    Through: 12/31,          !- Field 9
    For: AllDays,            !- Field 10
    Until: 24:00, 0;         !- Field 12

Material,
    Wall Insulation HP,      !- Name
    MediumRough,             !- Roughness
    0.32972,                 !- Thickness {m}
    0.049,                   !- Conductivity {W/m-K}
    265.0000,                !- Density {kg/m3}
    836.8000,                !- Specific Heat {J/kg-K}
    0.9000,                  !- Thermal Absorptance
    0.7000,                  !- Solar Absorptance
    0.7000;                  !- Visible Absorptance

Material,
    Roof Insulation HP,      !- Name
    MediumRough,             !- Roughness
    0.68799,                 !- Thickness {m}
    0.049,                   !- Conductivity {W/m-K}
    265.0000,                !- Density {kg/m3}
    836.8000,                !- Specific Heat {J/kg-K}
    0.9000,                  !- Thermal Absorptance
    0.7000,                  !- Solar Absorptance
    0.7000;                  !- Visible Absorptance

Material,
    Slab Insulation HP,      !- Name
    MediumRough,             !- Roughness
    0.04439,                 !- Thickness {m}
    0.049,                   !- Conductivity {W/m-K}
    265.0000,                !- Density {kg/m3}
    836.8000,                !- Specific Heat {J/kg-K}
    0.9000,                  !- Thermal Absorptance
    0.7000,                  !- Solar Absorptance
    0.7000;                  !- Visible Absorptance

Material,
    Slab Peri Insulation HP, !- Name
    MediumRough,             !- Roughness
    0.27959,                 !- Thickness {m}
    0.049,                   !- Conductivity {W/m-K}
    265.0000,                !- Density {kg/m3}
    836.8000,                !- Specific Heat {J/kg-K}
    0.9000,                  !- Thermal Absorptance
    0.7000,                  !- Solar Absorptance
    0.7000;                  !- Visible Absorptance

WindowMaterial:SimpleGlazingSystem,
    HPWindowAssem,           !- Name
    0.92593,                 !- U-Factor {W/m2-K}
    0.57;                    !- Solar Heat Gain Coefficient

WindowMaterial:Glazing,
    ECABS-1 BLEACHED 6MM,    !- Name
    SpectralAverage,         !- Optical Data Type
    ,                        !- Window Glass Spectral Data Set Name
    0.012,                   !- Thickness {m}
    0.814,                   !- Solar Transmittance at Normal Incidence
    0.086,                   !- Front Side Solar Reflectance at Normal Incidence
    0.086,                   !- Back Side Solar Reflectance at Normal Incidence
    0.847,                   !- Visible Transmittance at Normal Incidence
    0.099,                   !- Front Side Visible Reflectance at Normal Incidence
    0.099,                   !- Back Side Visible Reflectance at Normal Incidence
    0.0,                     !- Infrared Transmittance at Normal Incidence
    0.84,                    !- Front Side Infrared Hemispherical Emissivity
    0.84,                    !- Back Side Infrared Hemispherical Emissivity
    0.9;                     !- Conductivity {W/m-K}

WindowMaterial:Glazing,
    ECABS-1 COLORED 6MM,     !- Name
    SpectralAverage,         !- Optical Data Type
    ,                        !- Window Glass Spectral Data Set Name
    0.012,                   !- Thickness {m}
    0.111,                   !- Solar Transmittance at Normal Incidence
    0.179,                   !- Front Side Solar Reflectance at Normal Incidence
    0.179,                   !- Back Side Solar Reflectance at Normal Incidence
    0.128,                   !- Visible Transmittance at Normal Incidence
    0.081,                   !- Front Side Visible Reflectance at Normal Incidence
    0.081,                   !- Back Side Visible Reflectance at Normal Incidence
    0.0,                     !- Infrared Transmittance at Normal Incidence
    0.84,                    !- Front Side Infrared Hemispherical Emissivity
    0.84,                    !- Back Side Infrared Hemispherical Emissivity
    0.9;                     !- Conductivity {W/m-K}

WindowMaterial:Glazing,
    ECABS-2 BLEACHED 6MM,    !- Name
    SpectralAverage,         !- Optical Data Type
    ,                        !- Window Glass Spectral Data Set Name
    0.012,                   !- Thickness {m}
    0.814,                   !- Solar Transmittance at Normal Incidence
    0.086,                   !- Front Side Solar Reflectance at Normal Incidence
    0.086,                   !- Back Side Solar Reflectance at Normal Incidence
    0.847,                   !- Visible Transmittance at Normal Incidence
    0.099,                   !- Front Side Visible Reflectance at Normal Incidence
    0.099,                   !- Back Side Visible Reflectance at Normal Incidence
    0.0,                     !- Infrared Transmittance at Normal Incidence
    0.84,                    !- Front Side Infrared Hemispherical Emissivity
    0.10,                    !- Back Side Infrared Hemispherical Emissivity
    0.9;                     !- Conductivity {W/m-K}

WindowMaterial:Glazing,
    ECABS-2 COLORED 6MM,     !- Name
    SpectralAverage,         !- Optical Data Type
    ,                        !- Window Glass Spectral Data Set Name
    0.012,                   !- Thickness {m}
    0.111,                   !- Solar Transmittance at Normal Incidence
    0.179,                   !- Front Side Solar Reflectance at Normal Incidence
    0.179,                   !- Back Side Solar Reflectance at Normal Incidence
    0.128,                   !- Visible Transmittance at Normal Incidence
    0.081,                   !- Front Side Visible Reflectance at Normal Incidence
    0.081,                   !- Back Side Visible Reflectance at Normal Incidence
    0.0,                     !- Infrared Transmittance at Normal Incidence
    0.84,                    !- Front Side Infrared Hemispherical Emissivity
    0.10,                    !- Back Side Infrared Hemispherical Emissivity
    0.9;                     !- Conductivity {W/m-K}

WindowMaterial:Glazing,
    CLEAR 6MM,               !- Name
    SpectralAverage,         !- Optical Data Type
    ,                        !- Window Glass Spectral Data Set Name
    0.006,                   !- Thickness {m}
    0.775,                   !- Solar Transmittance at Normal Incidence
    0.071,                   !- Front Side Solar Reflectance at Normal Incidence
    0.071,                   !- Back Side Solar Reflectance at Normal Incidence
    0.881,                   !- Visible Transmittance at Normal Incidence
    0.080,                   !- Front Side Visible Reflectance at Normal Incidence
    0.080,                   !- Back Side Visible Reflectance at Normal Incidence
    0.0,                     !- Infrared Transmittance at Normal Incidence
    0.84,                    !- Front Side Infrared Hemispherical Emissivity
    0.84,                    !- Back Side Infrared Hemispherical Emissivity
    0.9;                     !- Conductivity {W/m-K}

WindowMaterial:Glazing,
    CLEAR 12MM,              !- Name
    SpectralAverage,         !- Optical Data Type
    ,                        !- Window Glass Spectral Data Set Name
    0.012,                   !- Thickness {m}
    0.653,                   !- Solar Transmittance at Normal Incidence
    0.064,                   !- Front Side Solar Reflectance at Normal Incidence
    0.064,                   !- Back Side Solar Reflectance at Normal Incidence
    0.841,                   !- Visible Transmittance at Normal Incidence
    0.077,                   !- Front Side Visible Reflectance at Normal Incidence
    0.077,                   !- Back Side Visible Reflectance at Normal Incidence
    0.0,                     !- Infrared Transmittance at Normal Incidence
    0.84,                    !- Front Side Infrared Hemispherical Emissivity
    0.84,                    !- Back Side Infrared Hemispherical Emissivity
    0.9;                     !- Conductivity {W/m-K}

WindowMaterial:Gas,
    ARGON 13MM,              !- Name
    Argon,                   !- Gas Type
    0.0127;                  !- Thickness {m}

Construction,
    HPWall,                  !- Name
    1IN Stucco,              !- Outside Layer
    8IN CONCRETE HW,         !- Layer 2
    Wall Insulation HP,      !- Layer 3
    1/2IN Gypsum;            !- Layer 4

Construction,
    HPRoof,                  !- Name
    Roof Membrane,           !- Outside Layer
    Roof Insulation HP,      !- Layer 2
    Metal Decking;           !- Layer 3

Construction,
    HPSlab,                  !- Name
    HW CONCRETE,             !- Outside Layer
    Slab Insulation HP,      !- Layer 2
    CP02 CARPET PAD;         !- Layer 3

Construction,
    HP Slab Perimeter,       !- Name
    HW CONCRETE,             !- Outside Layer
    Slab Peri Insulation HP, !- Layer 2
    CP02 CARPET PAD;         !- Layer 3

Construction,
    HP Window,               !- Name
    HPWindowAssem;           !- Outside Layer

Construction,
    Dbl Elec Abs Bleached 6mm/13mm Air,  !- Name
    ECABS-2 BLEACHED 6MM,    !- Outside Layer
    ARGON 13MM,              !- Layer 2
    CLEAR 12MM,              !- Layer 3
    ARGON 13MM,              !- Layer 4
    CLEAR 12MM;              !- Layer 5

Construction,
    Dbl Elec Abs Colored 6mm/13mm Air,  !- Name
    ECABS-2 COLORED 6MM,     !- Outside Layer
    ARGON 13MM,              !- Layer 2
    CLEAR 12MM,              !- Layer 3
    ARGON 13MM,              !- Layer 4
    CLEAR 12MM;              !- Layer 5

WindowProperty:ShadingControl,
    12_ECW,                  !- Name
    SwitchableGlazing,       !- Shading Type
    Dbl Elec Abs Colored 6mm/13mm Air,  !- Construction with Shading Name
    OnIfHighZoneAirTemperature,  !- Shading Control Type
    ,                        !- Schedule Name
    ,                        !- Setpoint {W/m2, W or deg C}
    No,                      !- Shading Control Is Scheduled
    No,                      !- Glare Control Is Active
    ,                        !- Shading Device Material Name
    ,                        !- Type of Slat Angle Control for Blinds
    ;                        !- Slat Angle Schedule Name

! RefBldgHospitalNew2004_Chicago.idf
!
! This example file is based on Version 1.3_5.0 and was transitioned to Version 6.0 using the transition utility
!
! DOE Commercial Reference Building
! Hospital, new construction 90.1-2004
! Version 1.3_5.0
! EnergyPlus Version 6.0
! ASHRAE Standards 90.1-2004 and 62-1999
!
! Description:  Five story hospital
! Form:         Area = 22,422 m2 (241,351 ft2); Number of Stories = 5 + Basement; Aspect ratio = 1.31
! Envelope:     Envelope thermal properties vary with climate according to ASHRAE Standard 90.1-2004.
!               Opaque constructions: mass walls; built-up flat roof (insulation above deck); basement
!               Windows: window-to-wall ratio = 11.2% (N), 12.1% (E), 13.3% (S), 23.2%(W), 14.6% (overall)
!               Infiltration in perimeter zones only
!                            = 0.4 cfm/ft2 above grade wall area at 0.3 in wc (75 Pa) adjusted to 0.016 in wc (4 Pa).
!                              25% of full value when ventilation system on.
! HVAC:         Water cooled electric chiller, natural gas boiler, 2 VAV systems, 2 CAV systems
!               Economizer per 90.1-2004 on VAV systems
!               Chiller part load curve corrected from original
!
! Exhaust:      Kitchen exhaust 2501 L/s (5300 cfm), 30% of exhaust make-up air from dining
!               Kitchen exhaust fan modeled as exterior load to avoid getting double make-up air
! Refrigeration: Walk-in cooler and walk-in freezer
! Elevators:    8 @ 25 HP each, 91% motor efficiency, motor heat exhausted directly
!
! Int. gains:   W/m2 (W/ft2)  lights          elec plug       gas plug
!               Basement      11.8 (1.1)      8.07 (0.75)     0
!               ER Rooms      29.1 (2.7)      16.0 (1.5)      0
!               Trauma        29.1 (2.7)      43.0 (4.0)      0
!               Triage        29.1 (2.7)      29.1 (2.7)      0
!               OR Rooms      23.7 (2.2)      43.0 (4.0)      0
!               Nurse Stat.   12.7 (1.2)      11.2 (1.0)      0
!               ICU Rooms     8.61 (0.8)      32.3 (3.0)      0
!               Pat. Rooms    7.53 (0.7)      21.5 (2.0)      0
!               Lobby         15.8 (1.5)      1.08 (0.1)      0
!               Corridor      10.7 (1.0)      0.0 (0.0)       0
!               Office        11.8 (1.1)      10.8 (1.0)      0
!               Lab           15.1 (1.4)      43.0 (4.0)      0
!               Kitchen       12.9 (1.2)      80.7 (7.5)      305 (28.3)
!               Dining areas  9.68 (0.9)      10.8 (1.0)      0
!
! Detached Shading:               None
! Daylight:                       None
! Natural Ventilation:            None
! Zonal Equipment:                None
! Air Primary Loops:              VAV with Hot Water Reheat, CAV with Hot Water Reheat
! Plant Loops:                    SHWSys1, HeatSys1, CoolSys1, TowerWaterSys
! System Equipment Autosize:      Yes
! Purchased Cooling:              None
! Purchased Heating:              None
! Coils:                          Coil:Cooling:Water:DetailedGeometry; Coil:Heating:Water
! Pumps:                          Yes
! Boilers:                        Boiler:HotWater (gas-fired)
! Chillers:                       Chiller:Electric:ReformulatedEIR (water-cooled)
!***** NOTICE *****
!***** The Reference Buildings were prepared as an account of work sponsored by an *****
!***** agency of the United States government. Neither the United States *****
!***** government nor any agency thereof, nor any of their employees, makes *****
!***** any warranty, express or implied, or assumes any legal liability or *****
!***** responsibility for the accuracy, completeness, or usefulness of any *****
!***** information, apparatus, product, or process disclosed, or represents *****
!***** that its use would not infringe privately owned rights. Reference *****
!***** herein to any specific commercial product, process, or service by *****
!***** trade name, trademark, manufacturer, or otherwise does not necessarily *****
!***** constitute or imply its endorsement, recommendation, or favoring by *****
!***** the United States government or any agency thereof. The views and *****
!***** opinions of authors expressed herein do not necessarily state or *****
!***** reflect those of the United States government or any agency thereof. *****
!***** Access to and use of the Reference Buildings imposes the following obligations *****
!***** on the user. The user agrees to credit DOE, NREL, PNNL, and LBNL in *****
!***** any publication(s) that that result from the use of Reference Buildings. *****
!***** However, the names of DOE/NREL/PNNL/LBNL may not be used in any *****
!***** advertising or publicity that implies endorsement or promotion of any *****
!***** products, services or commercial entities. *****
! Reference citation for the Commercial Reference Buildings:
! Deru, M.; Field, K.; Studer, D.; Benne, K.; Griffith, B.; Torcellini, P;
! Halverson, M.; Winiarski, D.; Liu, B.; Rosenberg, M.; Huang, J.;
! Yazdanian, M.; Crawley, D. (2010).
! U.S. Department of Energy Commercial Reference Building Models of the National Building Stock.
! Washington, DC: U.S. Department of Energy, Energy Efficiency and
! Renewable Energy, Office of Building Technologies.
! ***GENERAL SIMULATION PARAMETERS***
! Number of Zones: 55
Version,8.7;

SimulationControl,
    YES,                     !- Do Zone Sizing Calculation
    YES,                     !- Do System Sizing Calculation
    YES,                     !- Do Plant Sizing Calculation
    No,                      !- Run Simulation for Sizing Periods
    Yes;                     !- Run Simulation for Weather File Run Periods

Building,
    Ref Bldg Hospital New2004_v1.3_5.0,  !- Name
    0.0000,                  !- North Axis {deg}
    City,                    !- Terrain
    0.05,                    !- Loads Convergence Tolerance Value
    0.2000,                  !- Temperature Convergence Tolerance Value {deltaC}
    FullInteriorAndExterior, !- Solar Distribution
    25,                      !- Maximum Number of Warmup Days
    6;                       !- Minimum Number of Warmup Days

RunPeriod,
    ,                        !- Name
    1,                       !- Begin Month
    1,                       !- Begin Day of Month
    12,                      !- End Month
    31,                      !- End Day of Month
    Sunday,                  !- Day of Week for Start Day
    No,                      !- Use Weather File Holidays and Special Days
    No,                      !- Use Weather File Daylight Saving Period
    No,                      !- Apply Weekend Holiday Rule
    Yes,                     !- Use Weather File Rain Indicators
    Yes,                     !- Use Weather File Snow Indicators
    1.0000;                  !- Number of Times Runperiod to be Repeated

! ***HOLIDAYS & DAYLIGHT SAVINGS***
RunPeriodControl:DaylightSavingTime,
    2nd Sunday in March,     !- Start Date
    1st Sunday in November;  !- End Date

RunPeriodControl:SpecialDays,
    New Years Day,           !- Name
    January 1,               !- Start Date
    1,                       !- Duration {days}
    Holiday;                 !- Special Day Type

RunPeriodControl:SpecialDays,
    Veterans Day,            !- Name
    November 11,             !- Start Date
    1,                       !- Duration {days}
    Holiday;                 !- Special Day Type

RunPeriodControl:SpecialDays,
    Christmas,               !- Name
    December 25,             !- Start Date
    1,                       !- Duration {days}
    Holiday;                 !- Special Day Type

RunPeriodControl:SpecialDays,
    Independence Day,        !- Name
    July 4,                  !- Start Date
    1,                       !- Duration {days}
    Holiday;                 !- Special Day Type

RunPeriodControl:SpecialDays,
    MLK Day,                 !- Name
    3rd Monday in January,   !- Start Date
    1,                       !- Duration {days}
    Holiday;                 !- Special Day Type

RunPeriodControl:SpecialDays,
    Presidents Day,          !- Name
    3rd Monday in February,  !- Start Date
    1,                       !- Duration {days}
    Holiday;                 !- Special Day Type

RunPeriodControl:SpecialDays,
    Memorial Day,            !- Name
    Last Monday in May,      !- Start Date
    1,                       !- Duration {days}
    Holiday;                 !- Special Day Type

RunPeriodControl:SpecialDays,
    Labor Day,               !- Name
    1st Monday in September, !- Start Date
    1,                       !- Duration {days}
    Holiday;                 !- Special Day Type

RunPeriodControl:SpecialDays,
    Columbus Day,            !- Name
    2nd Monday in October,   !- Start Date
    1,                       !- Duration {days}
    Holiday;                 !- Special Day Type

RunPeriodControl:SpecialDays,
    Thanksgiving,            !- Name
    4th Thursday in November,!- Start Date
    1,                       !- Duration {days}
    Holiday;                 !- Special Day Type

! ***SCHEDULE TYPES***
ScheduleTypeLimits,
    Any Number;              !- Name

ScheduleTypeLimits,
    Fraction,                !- Name
    0.0,                     !- Lower Limit Value
    1.0,                     !- Upper Limit Value
    CONTINUOUS;              !- Numeric Type

ScheduleTypeLimits,
    Temperature,             !- Name
    -60,                     !- Lower Limit Value
    200,                     !- Upper Limit Value
    CONTINUOUS;              !- Numeric Type

ScheduleTypeLimits,
    On/Off,                  !- Name
    0,                       !- Lower Limit Value
    1,                       !- Upper Limit Value
    DISCRETE;                !- Numeric Type

ScheduleTypeLimits,
    Control Type,            !- Name
    0,                       !- Lower Limit Value
    4,                       !- Upper Limit Value
    DISCRETE;                !- Numeric Type

ScheduleTypeLimits,
    Humidity,                !- Name
    10,                      !- Lower Limit Value
    90,                      !- Upper Limit Value
    CONTINUOUS;              !- Numeric Type

ScheduleTypeLimits,
    Number;                  !- Name

! ***ALWAYS ON SCHEDULE***
Schedule:Compact,
    ALWAYS_ON,               !- Name
    On/Off,                  !- Schedule Type Limits Name
    Through: 12/31,          !- Field 1
    For: AllDays,            !- Field 2
    Until: 24:00, 1;         !- Field 4

! ***MISC SIMULATION PARAMETERS***
SurfaceConvectionAlgorithm:Inside,TARP;
SurfaceConvectionAlgorithm:Outside,DOE-2;
HeatBalanceAlgorithm,ConductionTransferFunction,200.0000;
ZoneAirHeatBalanceAlgorithm,AnalyticalSolution;

Sizing:Parameters,
    1.2,                     !- Heating Sizing Factor
    1.2,                     !- Cooling Sizing Factor
    4;                       !- Timesteps in Averaging Window

ConvergenceLimits,
    2,                       !- Minimum System Timestep {minutes}
    25;                      !- Maximum HVAC Iterations

ShadowCalculation,
    AverageOverDaysInFrequency,  !- Calculation Method
    7,                       !- Calculation Frequency
    15000;                   !- Maximum Figures in Shadow Overlap Calculations

Timestep,4;

! WeatherFileName=USA_IL_Chicago-OHare_TMY2.epw
Site:Location,
    USA IL-CHICAGO-OHARE,    !- Name
    41.77,                   !- Latitude {deg}
    -87.75,                  !- Longitude {deg}
    -6.00,                   !- Time Zone {hr}
    190;                     !- Elevation {m}

Site:WaterMainsTemperature,
    CORRELATION,             !- Calculation Method
    ,                        !- Temperature Schedule Name
    9.69,                    !- Annual Average Outdoor Air Temperature {C}
    28.10;                   !- Maximum Difference In Monthly Average Outdoor Air Temperatures {deltaC}

! ***OPAQUE CONSTRUCTIONS AND MATERIALS***
! Exterior Walls
Construction,
    Mass Non-res Ext Wall,   !- Name
    1IN Stucco,              !- Outside Layer
    8IN Concrete HW,         !- Layer 2
    Mass NonRes Wall Insulation,  !- Layer 3
    1/2IN Gypsum;            !- Layer 4

Material,
    Mass NonRes Wall Insulation,  !- Name
    MediumRough,             !- Roughness
    0.0495494599433393,      !- Thickness {m}
    0.049,                   !- Conductivity {W/m-K}
    265.0000,                !- Density {kg/m3}
    836.8000,                !- Specific Heat {J/kg-K}
    0.9000,                  !- Thermal Absorptance
    0.7000,                  !- Solar Absorptance
    0.7000;                  !- Visible Absorptance

! Roof
Construction,
    IEAD Non-res Roof,       !- Name
    Roof Membrane,           !- Outside Layer
    IEAD NonRes Roof Insulation,  !- Layer 2
    Metal Decking;           !- Layer 3

Material,
    IEAD NonRes Roof Insulation,  !- Name
    MediumRough,             !- Roughness
    0.127338688569477,       !- Thickness {m}
    0.049,                   !- Conductivity {W/m-K}
    265.0000,                !- Density {kg/m3}
    836.8000,                !- Specific Heat {J/kg-K}
    0.9000,                  !- Thermal Absorptance
    0.7000,                  !- Solar Absorptance
    0.7000;                  !- Visible Absorptance

! Slab on grade, unheated
Construction,
    ext-slab,                !- Name
    HW CONCRETE;             !- Outside Layer

! Interior Walls
Construction,
    int-walls,               !- Name
    1/2IN Gypsum,            !- Outside Layer
    1/2IN Gypsum;            !- Layer 2

! Interior Floors
Construction,
    INT-FLOOR-TOPSIDE,       !- Name
    MAT-CC05 4 HW CONCRETE,  !- Outside Layer
    CP02 CARPET PAD;         !- Layer 2

Construction,
    INT-FLOOR-UNDERSIDE,     !- Name
    CP02 CARPET PAD,         !- Outside Layer
    MAT-CC05 4 HW CONCRETE;  !- Layer 2

Construction,
    Underground Wall Non-res,!- Name
    8IN Concrete HW,         !- Outside Layer
    UGWall NonRes Insulation;!- Layer 2

Material,
    UGWall NonRes Insulation,!- Name
    MediumRough,             !- Roughness
    0.0001,                  !- Thickness {m}
    0.049,                   !- Conductivity {W/m-K}
    265.0000,                !- Density {kg/m3}
    836.8000,                !- Specific Heat {J/kg-K}
    0.9000,                  !- Thermal Absorptance
    0.7000,                  !- Solar Absorptance
    0.7000;                  !- Visible Absorptance

! ***WINDOW/DOOR CONSTRUCTIONS AND MATERIALS***
Construction,
    Window Non-res Fixed,    !- Name
    NonRes Fixed Assembly Window;  !- Outside Layer

WindowMaterial:SimpleGlazingSystem,
    NonRes Fixed Assembly Window,  !- Name
    3.23646,                 !- U-Factor {W/m2-K}
    0.39;                    !- Solar Heat Gain Coefficient

Construction,
    Window Res Fixed,        !- Name
    Res Fixed Assembly Window;  !- Outside Layer

WindowMaterial:SimpleGlazingSystem,
    Res Fixed Assembly Window,  !- Name
    3.23646,                 !- U-Factor {W/m2-K}
    0.39;                    !- Solar Heat Gain Coefficient

! ***COMMON CONSTRUCTIONS AND MATERIALS***
Construction,
    DropCeiling,             !- Name
    Std AC02;                !- Outside Layer

Construction,
    AIR-WALL,                !- Name
    MAT-AIR-WALL;            !- Outside Layer

Construction,
    InteriorFurnishings,     !- Name
    Std Wood 6inch;          !- Outside Layer

Material,
    Std Wood 6inch,          !- Name
    MediumSmooth,            !- Roughness
    0.15,                    !- Thickness {m}
    0.12,                    !- Conductivity {W/m-K}
    540.0000,                !- Density {kg/m3}
    1210,                    !- Specific Heat {J/kg-K}
    0.9000000,               !- Thermal Absorptance
    0.7000000,               !- Solar Absorptance
    0.7000000;               !- Visible Absorptance

Material,
    Wood Siding,             !- Name
    MediumSmooth,            !- Roughness
    0.0100,                  !- Thickness {m}
    0.1100,                  !- Conductivity {W/m-K}
    544.6200,                !- Density {kg/m3}
    1210.0000,               !- Specific Heat {J/kg-K}
    0.9000,                  !- Thermal Absorptance
    0.7800,                  !- Solar Absorptance
    0.7800;                  !- Visible Absorptance

Material,
    1/2IN Gypsum,            !- Name
    Smooth,                  !- Roughness
    0.0127,                  !- Thickness {m}
    0.1600,                  !- Conductivity {W/m-K}
    784.9000,                !- Density {kg/m3}
    830.0000,                !- Specific Heat {J/kg-K}
    0.9000,                  !- Thermal Absorptance
    0.9200,                  !- Solar Absorptance
    0.9200;                  !- Visible Absorptance

Material,
    1IN Stucco,              !- Name
    Smooth,                  !- Roughness
    0.0253,                  !- Thickness {m}