!-Generator IDFEditor 1.49
!-Option SortedOrder

!-NOTE: All comments with '!-' are ignored by the IDFEditor and are generated automatically.
!-      Use '!' comments if they need to be retained when using the IDFEditor.


!-   ===========  ALL OBJECTS IN CLASS: VERSION ===========

! RefBldgQuickServiceRestaurantNew2004_Chicago.idf
!
! This example file is based on Version 1.3_5.0 and was transitioned to Version 6.0 using the transition utility
!
! DOE Commercial Reference Building
! Quick Service Restaurant, new construction 90.1-2004
! Version 1.3_5.0
! EnergyPlus Version 6.0
! ASHRAE Standards 90.1-2004 and 62-1999
!
! Description:  Single story, Two zone building.
! Form:         Area = 232 m2 (2,500 ft2); Number of Stories = 1 plus attic; Shape = rectangle, Aspect ratio = 1.0
! Envelope:     Envelope thermal properties vary with climate according to ASHRAE Standard 90.1-2004.
!               Opaque constructions: wood frame walls; attic roof; slab-on-grade floor
!               Windows: window-to-wall ratio = 14%
!               Infiltration = 0.4 cfm/ft2 above grade wall area at 0.3 in wc (75 Pa) adjusted to 0.016 in wc (4 Pa).
!                              50% of full value when ventilation system on.
! HVAC:         ASHRAE 90.1-2004 PSZ-AC, gas furnace
!               Economizer per 90.1-2004
! Exhaust:      Kitchen exhaust 1557 L/s (3300 cfm), 54% of exhaust make-up air from dining
!               Kitchen exhaust fan modeled to demonstrate new V8 features for Fan:ZoneExhaust (and remove a workaround in the original)
!               The balancing feature is used so that the full 1557 L/s can be exhausted from the kitchen, but only 722L/s is
!               deprecated from the return air flow because 835 L/s is obtained from the Dining zone via ZoneMixing
!
!
!
! Refrigeration: Walk-in cooler and walk-in freezer
!
! Int. gains:   W/m2 (W/ft2)   lights            elec plug       gas plug
!               Kitchen         12.9 (1.2)       301 (28.0)      1292 (120.0)
!               Dining          22.6 (2.1)       129 (12.0)         0
!
! Detached Shading:               None
! Daylight:                       None
! Natural Ventilation:            None
! Zonal Equipment:                None
! Air Primary Loops:              PSZ-AC:1; PSZ-AC:2
! Plant Loops:                    SHWSys1
! System Equipment Autosize:      Yes
! Purchased Cooling:              None
! Purchased Heating:              None
! Coils:                          Coil:Cooling:DX:SingleSpeed; Coil:Cooling:DX:TwoSpeed; Coil:Heating:Fuel
! Pumps:                          None
! Boilers:                        None
! Chillers:                       None
!***** NOTICE *****
!***** The Reference Buildings were prepared as an account of work sponsored by an *****
!***** agency of the United States government. Neither the United States *****
!***** government nor any agency thereof, nor any of their employees, makes *****
!***** any warranty, express or implied, or assumes any legal liability or *****
!***** responsibility for the accuracy, completeness, or usefulness of any *****
!***** information, apparatus, product, or process disclosed, or represents *****
!***** that its use would not infringe privately owned rights. Reference *****
!***** herein to any specific commercial product, process, or service by *****
!***** trade name, trademark, manufacturer, or otherwise does not necessarily *****
!***** constitute or imply its endorsement, recommendation, or favoring by *****
!***** the United States government or any agency thereof. The views and *****
!***** opinions of authors expressed herein do not necessarily state or *****
!***** reflect those of the United States government or any agency thereof. *****
!***** Access to and use of the Reference Buildings imposes the following obligations *****
!***** on the user. The user agrees to credit DOE, NREL, PNNL, and LBNL in *****
!***** any publication(s) that that result from the use of Reference Buildings. *****
!***** However, the names of DOE/NREL/PNNL/LBNL may not be used in any *****
!***** advertising or publicity that implies endorsement or promotion of any *****
!***** products, services or commercial entities. *****
! Reference citation for the Commercial Reference Buildings:
! Deru, M.; Field, K.; Studer, D.; Benne, K.; Griffith, B.; Torcellini, P;
! Halverson, M.; Winiarski, D.; Liu, B.; Rosenberg, M.; Huang, J.;
! Yazdanian, M.; Crawley, D. (2010).
! U.S. Department of Energy Commercial Reference Building Models of the National Building Stock.
! Washington, DC: U.S. Department of Energy, Energy Efficiency and
! Renewable Energy, Office of Building Technologies.
! ***GENERAL SIMULATION PARAMETERS***
! Number of Zones: 3
Version,
8.7;                     !- Version Identifier


!-   ===========  ALL OBJECTS IN CLASS: SIMULATIONCONTROL ===========

SimulationControl,
YES,                     !- Do Zone Sizing Calculation
YES,                     !- Do System Sizing Calculation
YES,                     !- Do Plant Sizing Calculation
No,                      !- Run Simulation for Sizing Periods
Yes,                     !- Run Simulation for Weather File Run Periods
Yes;                     !- Do HVAC Sizing Simulation for Sizing Periods


!-   ===========  ALL OBJECTS IN CLASS: BUILDING ===========

Building,
Ref Bldg Quick Service Restaurant New2004_v1.3_5.0,  !- Name
0.0000,                  !- North Axis {deg}
City,                    !- Terrain
0.0400,                  !- Loads Convergence Tolerance Value
0.2000,                  !- Temperature Convergence Tolerance Value {deltaC}
FullInteriorAndExterior, !- Solar Distribution
25,                      !- Maximum Number of Warmup Days
6;                       !- Minimum Number of Warmup Days


!-   ===========  ALL OBJECTS IN CLASS: SHADOWCALCULATION ===========

ShadowCalculation,
AverageOverDaysInFrequency,  !- Calculation Method
7,                       !- Calculation Frequency
15000;                   !- Maximum Figures in Shadow Overlap Calculations


!-   ===========  ALL OBJECTS IN CLASS: SURFACECONVECTIONALGORITHM:INSIDE ===========

! ***MISC SIMULATION PARAMETERS***
SurfaceConvectionAlgorithm:Inside,
AdaptiveConvectionAlgorithm;  !- Algorithm


!-   ===========  ALL OBJECTS IN CLASS: SURFACECONVECTIONALGORITHM:OUTSIDE ===========

SurfaceConvectionAlgorithm:Outside,
AdaptiveConvectionAlgorithm;  !- Algorithm


!-   ===========  ALL OBJECTS IN CLASS: HEATBALANCEALGORITHM ===========

HeatBalanceAlgorithm,
ConductionTransferFunction,  !- Algorithm
200.0000;                !- Surface Temperature Upper Limit {C}


!-   ===========  ALL OBJECTS IN CLASS: ZONEAIRHEATBALANCEALGORITHM ===========

ZoneAirHeatBalanceAlgorithm,
AnalyticalSolution;      !- Algorithm


!-   ===========  ALL OBJECTS IN CLASS: TIMESTEP ===========

Timestep,
4;                       !- Number of Timesteps per Hour


!-   ===========  ALL OBJECTS IN CLASS: CONVERGENCELIMITS ===========

ConvergenceLimits,
2,                       !- Minimum System Timestep {minutes}
25;                      !- Maximum HVAC Iterations


!-   ===========  ALL OBJECTS IN CLASS: SITE:LOCATION ===========

! WeatherFileName=USA_IL_Chicago-OHare_TMY2.epw
Site:Location,
USA IL-CHICAGO-OHARE,    !- Name
41.77,                   !- Latitude {deg}
-87.75,                  !- Longitude {deg}
-6.0,                   !- Time Zone {hr}
190;                     !- Elevation {m}


!-   ===========  ALL OBJECTS IN CLASS: SIZINGPERIOD:WEATHERFILEDAYS ===========

SizingPeriod:WeatherFileDays,
HDD,                     !- Name
11,                      !- Begin Month
20,                      !- Begin Day of Month
11,                      !- End Month
20,                      !- End Day of Month
Monday,                  !- Day of Week for Start Day
Yes,                     !- Use Weather File Daylight Saving Period
Yes;                     !- Use Weather File Rain and Snow Indicators

SizingPeriod:WeatherFileDays,
CDD,                     !- Name
7,                       !- Begin Month
21,                      !- Begin Day of Month
7,                       !- End Month
21,                      !- End Day of Month
Monday,                  !- Day of Week for Start Day
Yes,                     !- Use Weather File Daylight Saving Period
Yes;                     !- Use Weather File Rain and Snow Indicators

SizingPeriod:WeatherFileDays,
HDD3,                    !- Name
12,                      !- Begin Month
20,                      !- Begin Day of Month
12,                      !- End Month
20,                      !- End Day of Month
Monday,                  !- Day of Week for Start Day
Yes,                     !- Use Weather File Daylight Saving Period
Yes;                     !- Use Weather File Rain and Snow Indicators

SizingPeriod:WeatherFileDays,
CDD2,                    !- Name
5,                       !- Begin Month
23,                      !- Begin Day of Month
5,                       !- End Month
23,                      !- End Day of Month
Monday,                  !- Day of Week for Start Day
Yes,                     !- Use Weather File Daylight Saving Period
Yes;                     !- Use Weather File Rain and Snow Indicators

SizingPeriod:WeatherFileDays,
CDD3,                    !- Name
5,                       !- Begin Month
30,                      !- Begin Day of Month
5,                       !- End Month
30,                      !- End Day of Month
Monday,                  !- Day of Week for Start Day
Yes,                     !- Use Weather File Daylight Saving Period
Yes;                     !- Use Weather File Rain and Snow Indicators


!-   ===========  ALL OBJECTS IN CLASS: RUNPERIOD ===========

RunPeriod,
Annual,                  !- Name
1,                       !- Begin Month
1,                       !- Begin Day of Month
12,                      !- End Month
31,                      !- End Day of Month
Sunday,                  !- Day of Week for Start Day
No,                      !- Use Weather File Holidays and Special Days
No,                      !- Use Weather File Daylight Saving Period
No,                      !- Apply Weekend Holiday Rule
Yes,                     !- Use Weather File Rain Indicators
Yes,                     !- Use Weather File Snow Indicators
1.0000;                  !- Number of Times Runperiod to be Repeated


!-   ===========  ALL OBJECTS IN CLASS: RUNPERIODCONTROL:SPECIALDAYS ===========

RunPeriodControl:SpecialDays,
New Years Day,           !- Name
January 1,               !- Start Date
1,                       !- Duration {days}
Holiday;                 !- Special Day Type

RunPeriodControl:SpecialDays,
Veterans Day,            !- Name
November 11,             !- Start Date
1,                       !- Duration {days}
Holiday;                 !- Special Day Type

RunPeriodControl:SpecialDays,
Christmas,               !- Name
December 25,             !- Start Date
1,                       !- Duration {days}
Holiday;                 !- Special Day Type

RunPeriodControl:SpecialDays,
Independence Day,        !- Name
July 4,                  !- Start Date
1,                       !- Duration {days}
Holiday;                 !- Special Day Type

RunPeriodControl:SpecialDays,
MLK Day,                 !- Name
3rd Monday in January,   !- Start Date
1,                       !- Duration {days}
Holiday;                 !- Special Day Type

RunPeriodControl:SpecialDays,
Presidents Day,          !- Name
3rd Monday in February,  !- Start Date
1,                       !- Duration {days}
Holiday;                 !- Special Day Type

RunPeriodControl:SpecialDays,
Memorial Day,            !- Name
Last Monday in May,      !- Start Date
1,                       !- Duration {days}
Holiday;                 !- Special Day Type

RunPeriodControl:SpecialDays,
Labor Day,               !- Name
1st Monday in September, !- Start Date
1,                       !- Duration {days}
Holiday;                 !- Special Day Type

RunPeriodControl:SpecialDays,
Columbus Day,            !- Name
2nd Monday in October,   !- Start Date
1,                       !- Duration {days}
Holiday;                 !- Special Day Type

RunPeriodControl:SpecialDays,
Thanksgiving,            !- Name
4th Thursday in November,!- Start Date
1,                       !- Duration {days}
Holiday;                 !- Special Day Type


!-   ===========  ALL OBJECTS IN CLASS: RUNPERIODCONTROL:DAYLIGHTSAVINGTIME ===========

! ***HOLIDAYS & DAYLIGHT SAVINGS***
RunPeriodControl:DaylightSavingTime,
2nd Sunday in March,     !- Start Date
1st Sunday in November;  !- End Date


!-   ===========  ALL OBJECTS IN CLASS: SITE:GROUNDTEMPERATURE:BUILDINGSURFACE ===========

Site:GroundTemperature:BuildingSurface,
4.4,                     !- January Ground Temperature {C}
3.3,                     !- February Ground Temperature {C}
2.3,                     !- March Ground Temperature {C}
1.8,                     !- April Ground Temperature {C}
2,                       !- May Ground Temperature {C}
4,                       !- June Ground Temperature {C}
6.8,                     !- July Ground Temperature {C}
9.3,                     !- August Ground Temperature {C}
10.1,                    !- September Ground Temperature {C}
9.6,                     !- October Ground Temperature {C}
7.8,                     !- November Ground Temperature {C}
6;                       !- December Ground Temperature {C}


!-   ===========  ALL OBJECTS IN CLASS: SITE:WATERMAINSTEMPERATURE ===========

Site:WaterMainsTemperature,
CORRELATION,             !- Calculation Method
,                        !- Temperature Schedule Name
9.69,                    !- Annual Average Outdoor Air Temperature {C}
28.10;                   !- Maximum Difference In Monthly Average Outdoor Air Temperatures {deltaC}


!-   ===========  ALL OBJECTS IN CLASS: SCHEDULETYPELIMITS ===========

! ***SCHEDULE TYPES***
ScheduleTypeLimits,
Any Number;              !- Name

ScheduleTypeLimits,
Fraction,                !- Name
0.0,                     !- Lower Limit Value
1.0,                     !- Upper Limit Value
CONTINUOUS;              !- Numeric Type

ScheduleTypeLimits,
Temperature,             !- Name
-60,                     !- Lower Limit Value
200,                     !- Upper Limit Value
CONTINUOUS;              !- Numeric Type

ScheduleTypeLimits,
On/Off,                  !- Name
0,                       !- Lower Limit Value
1,                       !- Upper Limit Value
DISCRETE;                !- Numeric Type

ScheduleTypeLimits,
Control Type,            !- Name
0,                       !- Lower Limit Value
4,                       !- Upper Limit Value
DISCRETE;                !- Numeric Type

ScheduleTypeLimits,
Humidity,                !- Name
10,                      !- Lower Limit Value
90,                      !- Upper Limit Value
CONTINUOUS;              !- Numeric Type

ScheduleTypeLimits,
Number;                  !- Name


!-   ===========  ALL OBJECTS IN CLASS: SCHEDULE:COMPACT ===========

! ***ALWAYS ON SCHEDULE***
Schedule:Compact,
10_ALWAYS_ON,               !- Name
On/Off,                  !- Schedule Type Limits Name
Through: 12/31,          !- Field 1
For: AllDays,            !- Field 2
Until: 24:00,            !- Field 3
1;                       !- Field 4

! ***INTERNAL GAINS SCHEDULES***
Schedule:Compact,
10_ACTIVITY_SCH,            !- Name
Any Number,              !- Schedule Type Limits Name
Through: 12/31,          !- Field 1
For: AllDays,            !- Field 2
Until: 24:00,            !- Field 3
120.;                    !- Field 4

Schedule:Compact,
10_AIR_VELO_SCH,            !- Name
Any Number,              !- Schedule Type Limits Name
Through: 12/31,          !- Field 1
For: AllDays,            !- Field 2
Until: 24:00,            !- Field 3
0.2;                     !- Field 4

Schedule:Compact,
10_BLDG_EQUIP_SCH,          !- Name
Fraction,                !- Schedule Type Limits Name
Through: 12/31,          !- Field 1
For: Weekday,            !- Field 2
Until: 06:00,            !- Field 3
0.10,                    !- Field 4
Until: 08:00,            !- Field 5
0.35,                    !- Field 6
Until: 10:00,            !- Field 7
0.25,                    !- Field 8
Until: 14:00,            !- Field 9
0.35,                    !- Field 10
Until: 17:00,            !- Field 11
0.25,                    !- Field 12
Until: 20:00,            !- Field 13
0.35,                    !- Field 14
Until: 24:00,            !- Field 15
0.25,                    !- Field 16
For: Saturday,           !- Field 17
Until: 06:00,            !- Field 18
0.10,                    !- Field 19
Until: 08:00,            !- Field 20
0.35,                    !- Field 21
Until: 10:00,            !- Field 22
0.25,                    !- Field 23
Until: 14:00,            !- Field 24
0.35,                    !- Field 25
Until: 17:00,            !- Field 26
0.25,                    !- Field 27
Until: 20:00,            !- Field 28
0.35,                    !- Field 29
Until: 24:00,            !- Field 30
0.25,                    !- Field 31
For: SummerDesignDay,    !- Field 32
Until: 24:00,            !- Field 33
0.35,                    !- Field 34
For: WinterDesignDay,    !- Field 35
Until: 24:00,            !- Field 36
0.0,                     !- Field 37
For: Sunday Holidays AllOtherDays,  !- Field 38
Until: 06:00,            !- Field 39
0.10,                    !- Field 40
Until: 08:00,            !- Field 41
0.35,                    !- Field 42
Until: 10:00,            !- Field 43
0.25,                    !- Field 44
Until: 14:00,            !- Field 45
0.35,                    !- Field 46
Until: 17:00,            !- Field 47
0.25,                    !- Field 48
Until: 20:00,            !- Field 49
0.35,                    !- Field 50
Until: 24:00,            !- Field 51
0.25;                    !- Field 52

Schedule:Compact,
10_BLDG_LIGHT_SCH,          !- Name
Fraction,                !- Schedule Type Limits Name
Through: 12/31,          !- Field 1
For: SummerDesignDay,    !- Field 2
Until: 24:00,            !- Field 3
1.0,                     !- Field 4
For: WinterDesignDay,    !- Field 5
Until: 24:00,            !- Field 6
0.0,                     !- Field 7
For: Weekday Saturday Sunday Holidays AllOtherDays,  !- Field 8
Until: 01:00,            !- Field 9
0.45,                    !- Field 10
Until: 05:00,            !- Field 11
0.15,                    !- Field 12
Until: 06:00,            !- Field 13
0.45,                    !- Field 14
Until: 24:00,            !- Field 15
0.90;                    !- Field 16

Schedule:Compact,
10_BLDG_OCC_SCH,            !- Name
Fraction,                !- Schedule Type Limits Name
Through: 12/31,          !- Field 1
For: Weekdays,           !- Field 2
Until: 01:00,            !- Field 3
0.05,                    !- Field 4
Until: 05:00,            !- Field 5
0.0,                     !- Field 6
Until: 06:00,            !- Field 7
0.05,                    !- Field 8
Until: 07:00,            !- Field 9
0.1,                     !- Field 10
Until: 09:00,            !- Field 11
0.4,                     !- Field 12
Until: 10:00,            !- Field 13
0.3,                     !- Field 14
Until: 11:00,            !- Field 15
0.2,                     !- Field 16
Until: 12:00,            !- Field 17
0.5,                     !- Field 18
Until: 13:00,            !- Field 19
0.8,                     !- Field 20
Until: 14:00,            !- Field 21
0.7,                     !- Field 22
Until: 15:00,            !- Field 23
0.4,                     !- Field 24
Until: 16:00,            !- Field 25
0.2,                     !- Field 26
Until: 17:00,            !- Field 27
0.25,                    !- Field 28
Until: 18:00,            !- Field 29
0.5,                     !- Field 30
Until: 21:00,            !- Field 31
0.55,                    !- Field 32
Until: 22:00,            !- Field 33
0.5,                     !- Field 34
Until: 23:00,            !- Field 35
0.35,                    !- Field 36
Until: 24:00,            !- Field 37
0.2,                     !- Field 38
For: SummerDesignDay,    !- Field 39
Until: 24:00,            !- Field 40
1.0,                     !- Field 41
For: WinterDesignDay,    !- Field 42
Until: 24:00,            !- Field 43
0.0,                     !- Field 44
For: Saturday Sunday Holidays AllOtherDays,  !- Field 45
Until: 01:00,            !- Field 46
0.05,                    !- Field 47
Until: 05:00,            !- Field 48
0.0,                     !- Field 49
Until: 07:00,            !- Field 50
0.05,                    !- Field 51
Until: 10:00,            !- Field 52
0.3,                     !- Field 53
Until: 11:00,            !- Field 54
0.2,                     !- Field 55
Until: 12:00,            !- Field 56
0.45,                    !- Field 57
Until: 13:00,            !- Field 58
0.6,                     !- Field 59
Until:14:00,             !- Field 60
0.5,                     !- Field 61
Until: 15:00,            !- Field 62
0.35,                    !- Field 63
Until: 18:00,            !- Field 64
0.3,                     !- Field 65
Until: 21:00,            !- Field 66
0.55,                    !- Field 67
Until: 22:00,            !- Field 68
0.5,                     !- Field 69
Until: 23:00,            !- Field 70
0.35,                    !- Field 71
Until: 24:00,            !- Field 72
0.2;                     !- Field 73

Schedule:Compact,
10_GAS_EQUIP_SCH,           !- Name
Fraction,                !- Schedule Type Limits Name
Through: 12/31,          !- Field 1
For: SummerDesignDay,    !- Field 2
Until: 24:00,            !- Field 3
0.25,                    !- Field 4
For: WinterDesignDay,    !- Field 5
Until: 24:00,            !- Field 6
0.0,                     !- Field 7
For: AllOtherDays,       !- Field 8
Until: 05:00,            !- Field 9
0.02,                    !- Field 10
Until: 06:00,            !- Field 11
0.03,                    !- Field 12
Until: 07:00,            !- Field 13
0.09,                    !- Field 14
Until: 08:00,            !- Field 15
0.14,                    !- Field 16
Until: 10:00,            !- Field 17
0.10,                    !- Field 18
Until: 11:00,            !- Field 19
0.22,                    !- Field 20
Until: 12:00,            !- Field 21
0.27,                    !- Field 22
Until: 13:00,            !- Field 23
0.24,                    !- Field 24
Until: 14:00,            !- Field 25
0.21,                    !- Field 26
Until: 15:00,            !- Field 27
0.14,                    !- Field 28
Until:16:00,             !- Field 29
0.13,                    !- Field 30
Until:17:00,             !- Field 31
0.15,                    !- Field 32
Until: 20:00,            !- Field 33
0.17,                    !- Field 34
Until: 21:00,            !- Field 35
0.15,                    !- Field 36
Until: 22:00,            !- Field 37
0.14,                    !- Field 38
Until: 23:00,            !- Field 39
0.12,                    !- Field 40
Until: 24:00,            !- Field 41
0.02;                    !- Field 42

Schedule:Compact,
10_INFIL_HALF_ON_SCH,       !- Name
Fraction,                !- Schedule Type Limits Name
Through: 12/31,          !- Field 1
For: Weekdays SummerDesignDay,  !- Field 2
Until: 05:00,            !- Field 3
1.0,                     !- Field 4
Until: 24:00,            !- Field 5
0.5,                     !- Field 6
For: Saturday WinterDesignDay,  !- Field 7
Until: 05:00,            !- Field 8
1.0,                     !- Field 9
Until: 24:00,            !- Field 10
0.5,                     !- Field 11
For: Sunday Holidays AllOtherDays,  !- Field 12
Until: 05:00,            !- Field 13
1.0,                     !- Field 14
Until: 24:00,            !- Field 15
0.5;                     !- Field 16

Schedule:Compact,
10_Kitchen_Exhaust_SCH,     !- Name
On/Off,                  !- Schedule Type Limits Name
Through: 12/31,          !- Field 1
For: AllDays,            !- Field 2
Until: 01:00,            !- Field 3
1.0,                     !- Field 4
Until: 05:00,            !- Field 5
0.0,                     !- Field 6
Until: 24:00,            !- Field 7
1.0;                     !- Field 8

Schedule:Compact,
10_WORK_EFF_SCH,            !- Name
Fraction,                !- Schedule Type Limits Name
Through: 12/31,          !- Field 1
For: AllDays,            !- Field 2
Until: 24:00,            !- Field 3
0.0;                     !- Field 4

Schedule:Compact,
10_CLOTHING_SCH,            !- Name
Any Number,              !- Schedule Type Limits Name
Through: 04/30,          !- Field 1
For: AllDays,            !- Field 2
Until: 24:00,            !- Field 3
1.0,                     !- Field 4
Through: 09/30,          !- Field 5
For: AllDays,            !- Field 6
Until: 24:00,            !- Field 7
0.5,                     !- Field 8
Through: 12/31,          !- Field 9
For: AllDays,            !- Field 10
Until: 24:00,            !- Field 11
1.0;                     !- Field 12

! ***SCHEDULES***
Schedule:Compact,
10_Dual Zone Control Type Sched,  !- Name
Control Type,            !- Schedule Type Limits Name
Through: 12/31,          !- Field 1
For: AllDays,            !- Field 2
Until: 24:00,            !- Field 3
4;                       !- Field 4

Schedule:Compact,
10_CLGSETP_KITCHEN_SCH,     !- Name
Temperature,             !- Schedule Type Limits Name
Through: 12/31,          !- Field 1
For: WinterDesignDay,    !- Field 2
Until: 24:00,            !- Field 3
30,                      !- Field 4
For: AllOtherDays,       !- Field 5
Until: 01:00,            !- Field 6
26,                      !- Field 7
Until: 05:00,            !- Field 8
30,                      !- Field 9
Until: 24:00,            !- Field 10
26;                      !- Field 11

Schedule:Compact,
10_HTGSETP_KITCHEN_SCH,     !- Name
Temperature,             !- Schedule Type Limits Name
Through: 12/31,          !- Field 1
For: SummerDesignDay,    !- Field 2
Until: 24:00,            !- Field 3
15.6,                    !- Field 4
For: WinterDesignDay,    !- Field 5
Until: 24:00,            !- Field 6
19,                      !- Field 7
For: AllOtherDays,       !- Field 8
Until: 01:00,            !- Field 9
19,                      !- Field 10
Until: 05:00,            !- Field 11
15.6,                    !- Field 12
Until: 24:00,            !- Field 13
19;                      !- Field 14

Schedule:Compact,
10_CLGSETP_SCH,             !- Name
Temperature,             !- Schedule Type Limits Name
Through: 12/31,          !- Field 1
For: WinterDesignDay,    !- Field 2
Until: 24:00,            !- Field 3
30,                      !- Field 4
For: AllOtherDays,       !- Field 5
Until: 01:00,            !- Field 6
25,                      !- Field 7
Until: 05:00,            !- Field 8
30,                      !- Field 9
Until: 24:00,            !- Field 10
25;                      !- Field 11

Schedule:Compact,
10_HTGSETP_SCH,             !- Name
Temperature,             !- Schedule Type Limits Name
Through: 12/31,          !- Field 1
For: SummerDesignDay,    !- Field 2
Until: 24:00,            !- Field 3
15.6,                    !- Field 4
For: WinterDesignDay,    !- Field 5
Until: 24:00,            !- Field 6
20,                      !- Field 7
For: AllOtherDays,       !- Field 8
Until: 01:00,            !- Field 9
20,                      !- Field 10
Until: 05:00,            !- Field 11
15.6,                    !- Field 12
Until: 24:00,            !- Field 13
20;                      !- Field 14

Schedule:Compact,
10_HVACOperationSchd,       !- Name
On/Off,                  !- Schedule Type Limits Name
Through: 12/31,          !- Field 1
For: AllDays,            !- Field 2
Until: 01:00,            !- Field 3
1.0,                     !- Field 4
Until: 05:00,            !- Field 5
0.0,                     !- Field 6
Until: 24:00,            !- Field 7
1.0;                     !- Field 8

Schedule:Compact,
10_MinOA_Sched,             !- Name
Fraction,                !- Schedule Type Limits Name
Through: 12/31,          !- Field 1
For: AllDays,            !- Field 2
Until: 01:00,            !- Field 3
1.0,                     !- Field 4
Until: 05:00,            !- Field 5
0.0,                     !- Field 6
Until: 24:00,            !- Field 7
1.0;                     !- Field 8

Schedule:Compact,
10_Kitchen_Case:1_WALKINFREEZER_CaseCreditReduxSched,  !- Name
Fraction,                !- Schedule Type Limits Name
Through: 12/31,          !- Field 1
For:AllDays,             !- Field 2
Interpolate:No,          !- Field 3
Until: 7:00,             !- Field 4
0.2,                     !- Field 5
Until: 21:00,            !- Field 6
0.4,                     !- Field 7
Until: 24:00,            !- Field 8
0.2;                     !- Field 9

Schedule:Compact,
10_Kitchen_Case:1_WALKINFREEZER_CaseDefrost2aDaySched,  !- Name
On/Off,                  !- Schedule Type Limits Name
Through: 12/31,          !- Field 1
For:AllDays,             !- Field 2
Interpolate:Yes,         !- Field 3
Until: 11:00,            !- Field 4
0,                       !- Field 5
Until: 11:20,            !- Field 6
1,                       !- Field 7
Until: 23:00,            !- Field 8
0,                       !- Field 9
Until: 23:20,            !- Field 10
1,                       !- Field 11
Until: 24:00,            !- Field 12
0;                       !- Field 13

Schedule:Compact,
10_Kitchen_Case:1_WALKINFREEZER_CaseDripDown2aDaySched,  !- Name
On/Off,                  !- Schedule Type Limits Name
Through: 12/31,          !- Field 1
For:AllDays,             !- Field 2
Interpolate:Yes,         !- Field 3
Until: 11:00,            !- Field 4
0,                       !- Field 5
Until: 11:30,            !- Field 6
1,                       !- Field 7
Until: 23:00,            !- Field 8
0,                       !- Field 9
Until: 23:30,            !- Field 10
1,                       !- Field 11
Until: 24:00,            !- Field 12