!-Generator IDFEditor 1.49
!-Option SortedOrder

!-NOTE: All comments with '!-' are ignored by the IDFEditor and are generated automatically.
!-      Use '!' comments if they need to be retained when using the IDFEditor.


!-   ===========  ALL OBJECTS IN CLASS: VERSION ===========

! RefBldgSecondarySchoolNew2004_Chicago.idf
!
! This example file is based on Version 1.3_5.0 and was transitioned to Version 6.0 using the transition utility
!
! DOE Commercial Reference Building
! Secondary School, new construction 90.1-2004
! Version 1.3_5.0
! EnergyPlus Version 6.0
! ASHRAE Standards 90.1-2004 and 62-1999
!
! Description:  Two story, secondary school, 46 zones
!               Classrooms, auditorium, gymnasium, auxiliary gymnasium, cafeteria, kitchen
!               Original model developed for the K-12 Advanced Energy Design Guide
! Form:         Area = 19,592 m2 (210,887 ft2); Number of Stories = 2; Shape = "E",
!               Main corridor with three wings for class rooms
! Envelope:     Envelope thermal properties vary with climate according to ASHRAE Standard 90.1-2004.
!               Opaque constructions: steel frame walls; built-up flat roof (insulation above deck); slab-on-grade floor
!               Windows: window-to-wall ratio = 32.7%,
!               Skylights: 4% roof area in gymnasium and auxilary gymnasium
!               Infiltration = 0.4 cfm/ft2 above grade wall area at 0.3 in wc (75 Pa) adjusted to 0.016 in wc (4 Pa).
!                              25% of full value when ventilation system on.
! HVAC:         Air-cooled chiller, boiler, MZ-VAV with reheat in most of the building;
!               PSZ-AC and gas furnace in gymnasium, auditorium, kitchen, and cafeteria
!               Economizers per 90.1-2004
!               Chiller part load curve corrected from original
!
! Exhaust:      Restroom exhaust = 600 L/s total (1,271 cfm); Kitchen exhaust 1,888 L/s (4,000 cfm), 86% make-up air from cafeteria
!               Kitchen exhaust fan modeled as an external load to avoid getting double the make-up air
! Refrigeration: Walk-in cooler and walk-in freezer
! Elevators:    2 @ 20 HP each, 91% motor efficiency
!
! Int. gains:   W/m2 (W/ft2)       lights            elec plug         gas plug
!               Classrooms(2/60)   15.1 (1.4)        20.0 (1.9)        0
!               Classroom(58/60)   15.1 (1.4)        10.0 (0.93)       0
!               corridor           5.38 (0.5)        4.0 (0.37)        0
!               offices            11.8 (1.1)        10.8 (1.0)        0
!               Gyms               15.1 (1.4)        5.0 (0.46)        0
!               Kitchen            12.9 (1.2)        222 (20.7)        1199 (104)
!               Cafeteria          15.1 (1.4)        19.3 (1.8)        0
!               Library            14.0 (1.3)        10.0 (0.93)       0
!
! Detached Shading:               None
! Daylight:                       None
! Natural Ventilation:            None
! Zonal Equipment:                None
! Air Primary Loops:              VAV with hot water reheat; PSZ-AC with gas furnace
! Plant Loops:                    SHWSys1, HeatSys1, CoolSys1
! System Equipment Autosize:      Yes
! Purchased Cooling:              None
! Purchased Heating:              None
! Coils:                          Coil:Cooling:DX:SingleSpeed; Coil:Heating:Fuel;
!                                 Coil:Cooling:Water; Coil:Heating:Water
! Pumps:                          Yes
! Boilers:                        Boiler:HotWater (gas-fired)
! Chillers:                       Chiller:Electric:EIR (air-cooled)
!***** NOTICE *****
!***** The Reference Buildings were prepared as an account of work sponsored by an *****
!***** agency of the United States government. Neither the United States *****
!***** government nor any agency thereof, nor any of their employees, makes *****
!***** any warranty, express or implied, or assumes any legal liability or *****
!***** responsibility for the accuracy, completeness, or usefulness of any *****
!***** information, apparatus, product, or process disclosed, or represents *****
!***** that its use would not infringe privately owned rights. Reference *****
!***** herein to any specific commercial product, process, or service by *****
!***** trade name, trademark, manufacturer, or otherwise does not necessarily *****
!***** constitute or imply its endorsement, recommendation, or favoring by *****
!***** the United States government or any agency thereof. The views and *****
!***** opinions of authors expressed herein do not necessarily state or *****
!***** reflect those of the United States government or any agency thereof. *****
!***** Access to and use of the Reference Buildings imposes the following obligations *****
!***** on the user. The user agrees to credit DOE, NREL, PNNL, and LBNL in *****
!***** any publication(s) that that result from the use of Reference Buildings. *****
!***** However, the names of DOE/NREL/PNNL/LBNL may not be used in any *****
!***** advertising or publicity that implies endorsement or promotion of any *****
!***** products, services or commercial entities. *****
! Reference citation for the Commercial Reference Buildings:
! Deru, M.; Field, K.; Studer, D.; Benne, K.; Griffith, B.; Torcellini, P;
! Halverson, M.; Winiarski, D.; Liu, B.; Rosenberg, M.; Huang, J.;
! Yazdanian, M.; Crawley, D. (2010).
! U.S. Department of Energy Commercial Reference Building Models of the National Building Stock.
! Washington, DC: U.S. Department of Energy, Energy Efficiency and
! Renewable Energy, Office of Building Technologies.
! ***GENERAL SIMULATION PARAMETERS***
! Number of Zones: 46
Version,
    8.7;                     !- Version Identifier


!-   ===========  ALL OBJECTS IN CLASS: SIMULATIONCONTROL ===========

SimulationControl,
    YES,                     !- Do Zone Sizing Calculation
    YES,                     !- Do System Sizing Calculation
    YES,                     !- Do Plant Sizing Calculation
    No,                      !- Run Simulation for Sizing Periods
    Yes,                     !- Run Simulation for Weather File Run Periods
    Yes,                     !- Do HVAC Sizing Simulation for Sizing Periods
    1;                       !- Maximum Number of HVAC Sizing Simulation Passes


!-   ===========  ALL OBJECTS IN CLASS: BUILDING ===========

Building,
    Ref Bldg Secondary School New2004_v1.3_5.0,  !- Name
    0.0000,                  !- North Axis {deg}
    City,                    !- Terrain
    0.0400,                  !- Loads Convergence Tolerance Value
    0.2000,                  !- Temperature Convergence Tolerance Value {deltaC}
    FullInteriorAndExterior, !- Solar Distribution
    25,                      !- Maximum Number of Warmup Days
    6;                       !- Minimum Number of Warmup Days


!-   ===========  ALL OBJECTS IN CLASS: SHADOWCALCULATION ===========

ShadowCalculation,
    AverageOverDaysInFrequency,  !- Calculation Method
    7,                       !- Calculation Frequency
    15000;                   !- Maximum Figures in Shadow Overlap Calculations


!-   ===========  ALL OBJECTS IN CLASS: SURFACECONVECTIONALGORITHM:INSIDE ===========

! ***MISC SIMULATION PARAMETERS***
SurfaceConvectionAlgorithm:Inside,
    TARP;                    !- Algorithm


!-   ===========  ALL OBJECTS IN CLASS: SURFACECONVECTIONALGORITHM:OUTSIDE ===========

SurfaceConvectionAlgorithm:Outside,
    DOE-2;                   !- Algorithm


!-   ===========  ALL OBJECTS IN CLASS: HEATBALANCEALGORITHM ===========

HeatBalanceAlgorithm,
    ConductionTransferFunction,  !- Algorithm
    200.0000;                !- Surface Temperature Upper Limit {C}


!-   ===========  ALL OBJECTS IN CLASS: ZONEAIRHEATBALANCEALGORITHM ===========

ZoneAirHeatBalanceAlgorithm,
    AnalyticalSolution;      !- Algorithm


!-   ===========  ALL OBJECTS IN CLASS: TIMESTEP ===========

Timestep,
    6;                       !- Number of Timesteps per Hour


!-   ===========  ALL OBJECTS IN CLASS: CONVERGENCELIMITS ===========

ConvergenceLimits,
    2,                       !- Minimum System Timestep {minutes}
    25;                      !- Maximum HVAC Iterations


!-   ===========  ALL OBJECTS IN CLASS: SITE:LOCATION ===========

! WeatherFileName=USA_IL_Chicago-OHare_TMY2.epw
Site:Location,
    USA IL-CHICAGO-OHARE,    !- Name
    41.77,                   !- Latitude {deg}
    -87.75,                  !- Longitude {deg}
    -6.0,                    !- Time Zone {hr}
    190;                     !- Elevation {m}


!-   ===========  ALL OBJECTS IN CLASS: SIZINGPERIOD:WEATHERFILEDAYS ===========

SizingPeriod:WeatherFileDays,
    HDD,                     !- Name
    11,                      !- Begin Month
    20,                      !- Begin Day of Month
    11,                      !- End Month
    20,                      !- End Day of Month
    Monday,                  !- Day of Week for Start Day
    Yes,                     !- Use Weather File Daylight Saving Period
    Yes;                     !- Use Weather File Rain and Snow Indicators

SizingPeriod:WeatherFileDays,
    CDD,                     !- Name
    7,                       !- Begin Month
    21,                      !- Begin Day of Month
    7,                       !- End Month
    21,                      !- End Day of Month
    Monday,                  !- Day of Week for Start Day
    Yes,                     !- Use Weather File Daylight Saving Period
    Yes;                     !- Use Weather File Rain and Snow Indicators

SizingPeriod:WeatherFileDays,
    HDD3,                    !- Name
    12,                      !- Begin Month
    20,                      !- Begin Day of Month
    12,                      !- End Month
    20,                      !- End Day of Month
    Monday,                  !- Day of Week for Start Day
    Yes,                     !- Use Weather File Daylight Saving Period
    Yes;                     !- Use Weather File Rain and Snow Indicators

SizingPeriod:WeatherFileDays,
    CDD2,                    !- Name
    5,                       !- Begin Month
    23,                      !- Begin Day of Month
    5,                       !- End Month
    23,                      !- End Day of Month
    Monday,                  !- Day of Week for Start Day
    Yes,                     !- Use Weather File Daylight Saving Period
    Yes;                     !- Use Weather File Rain and Snow Indicators

SizingPeriod:WeatherFileDays,
    CDD3,                    !- Name
    5,                       !- Begin Month
    30,                      !- Begin Day of Month
    5,                       !- End Month
    30,                      !- End Day of Month
    Monday,                  !- Day of Week for Start Day
    Yes,                     !- Use Weather File Daylight Saving Period
    Yes;                     !- Use Weather File Rain and Snow Indicators


!-   ===========  ALL OBJECTS IN CLASS: RUNPERIOD ===========

RunPeriod,
    ,                        !- Name
    1,                       !- Begin Month
    1,                       !- Begin Day of Month
    12,                      !- End Month
    31,                      !- End Day of Month
    Sunday,                  !- Day of Week for Start Day
    No,                      !- Use Weather File Holidays and Special Days
    No,                      !- Use Weather File Daylight Saving Period
    No,                      !- Apply Weekend Holiday Rule
    Yes,                     !- Use Weather File Rain Indicators
    Yes,                     !- Use Weather File Snow Indicators
    1.0000;                  !- Number of Times Runperiod to be Repeated


!-   ===========  ALL OBJECTS IN CLASS: RUNPERIODCONTROL:SPECIALDAYS ===========

RunPeriodControl:SpecialDays,
    New Years Day,           !- Name
    January 1,               !- Start Date
    1,                       !- Duration {days}
    Holiday;                 !- Special Day Type

RunPeriodControl:SpecialDays,
    Veterans Day,            !- Name
    November 11,             !- Start Date
    1,                       !- Duration {days}
    Holiday;                 !- Special Day Type

RunPeriodControl:SpecialDays,
    Christmas,               !- Name
    December 25,             !- Start Date
    1,                       !- Duration {days}
    Holiday;                 !- Special Day Type

RunPeriodControl:SpecialDays,
    Independence Day,        !- Name
    July 4,                  !- Start Date
    1,                       !- Duration {days}
    Holiday;                 !- Special Day Type

RunPeriodControl:SpecialDays,
    MLK Day,                 !- Name
    3rd Monday in January,   !- Start Date
    1,                       !- Duration {days}
    Holiday;                 !- Special Day Type

RunPeriodControl:SpecialDays,
    Presidents Day,          !- Name
    3rd Monday in February,  !- Start Date
    1,                       !- Duration {days}
    Holiday;                 !- Special Day Type

RunPeriodControl:SpecialDays,
    Memorial Day,            !- Name
    Last Monday in May,      !- Start Date
    1,                       !- Duration {days}
    Holiday;                 !- Special Day Type

RunPeriodControl:SpecialDays,
    Labor Day,               !- Name
    1st Monday in September, !- Start Date
    1,                       !- Duration {days}
    Holiday;                 !- Special Day Type

RunPeriodControl:SpecialDays,
    Columbus Day,            !- Name
    2nd Monday in October,   !- Start Date
    1,                       !- Duration {days}
    Holiday;                 !- Special Day Type

RunPeriodControl:SpecialDays,
    Thanksgiving,            !- Name
    4th Thursday in November,!- Start Date
    1,                       !- Duration {days}
    Holiday;                 !- Special Day Type


!-   ===========  ALL OBJECTS IN CLASS: RUNPERIODCONTROL:DAYLIGHTSAVINGTIME ===========

! ***HOLIDAYS & DAYLIGHT SAVINGS***
RunPeriodControl:DaylightSavingTime,
    2nd Sunday in March,     !- Start Date
    1st Sunday in November;  !- End Date


!-   ===========  ALL OBJECTS IN CLASS: SITE:GROUNDTEMPERATURE:BUILDINGSURFACE ===========

Site:GroundTemperature:BuildingSurface,
    4.4,                     !- January Ground Temperature {C}
    3.3,                     !- February Ground Temperature {C}
    2.3,                     !- March Ground Temperature {C}
    1.8,                     !- April Ground Temperature {C}
    2,                       !- May Ground Temperature {C}
    4,                       !- June Ground Temperature {C}
    6.8,                     !- July Ground Temperature {C}
    9.3,                     !- August Ground Temperature {C}
    10.1,                    !- September Ground Temperature {C}
    9.6,                     !- October Ground Temperature {C}
    7.8,                     !- November Ground Temperature {C}
    6;                       !- December Ground Temperature {C}


!-   ===========  ALL OBJECTS IN CLASS: SITE:WATERMAINSTEMPERATURE ===========

Site:WaterMainsTemperature,
    CORRELATION,             !- Calculation Method
    ,                        !- Temperature Schedule Name
    9.69,                    !- Annual Average Outdoor Air Temperature {C}
    28.10;                   !- Maximum Difference In Monthly Average Outdoor Air Temperatures {deltaC}


!-   ===========  ALL OBJECTS IN CLASS: SCHEDULETYPELIMITS ===========

! ***SCHEDULE TYPES***
ScheduleTypeLimits,
    Any Number;              !- Name

ScheduleTypeLimits,
    Fraction,                !- Name
    0.0,                     !- Lower Limit Value
    1.0,                     !- Upper Limit Value
    CONTINUOUS;              !- Numeric Type

ScheduleTypeLimits,
    Temperature,             !- Name
    -60,                     !- Lower Limit Value
    200,                     !- Upper Limit Value
    CONTINUOUS;              !- Numeric Type

ScheduleTypeLimits,
    On/Off,                  !- Name
    0,                       !- Lower Limit Value
    1,                       !- Upper Limit Value
    DISCRETE;                !- Numeric Type

ScheduleTypeLimits,
    Control Type,            !- Name
    0,                       !- Lower Limit Value
    4,                       !- Upper Limit Value
    DISCRETE;                !- Numeric Type

ScheduleTypeLimits,
    Humidity,                !- Name
    10,                      !- Lower Limit Value
    90,                      !- Upper Limit Value
    CONTINUOUS;              !- Numeric Type

ScheduleTypeLimits,
    Number;                  !- Name


!-   ===========  ALL OBJECTS IN CLASS: SCHEDULE:COMPACT ===========

! ***ALWAYS ON SCHEDULE***
Schedule:Compact,
    8_ALWAYS_ON,             !- Name
    On/Off,                  !- Schedule Type Limits Name
    Through: 12/31,          !- Field 1
    For: AllDays,            !- Field 2
    Until: 24:00,            !- Field 3
    1;                       !- Field 4

! ***INTERNAL GAINS SCHEDULES***
Schedule:Compact,
    8_Kitchen_Exhaust_SCH,   !- Name
    Fraction,                !- Schedule Type Limits Name
    Through: 12/31,          !- Field 1
    For: Weekdays SummerDesignDay,  !- Field 2
    Until: 06:00,            !- Field 3
    0,                       !- Field 4
    Until: 21:00,            !- Field 5
    1.0,                     !- Field 6
    Until: 24:00,            !- Field 7
    0,                       !- Field 8
    For: AllOtherDays,       !- Field 9
    Until: 24:00,            !- Field 10
    0;                       !- Field 11

Schedule:Compact,
    8_BLDG_ELEVATORS,        !- Name
    Fraction,                !- Schedule Type Limits Name
    Through: 12/31,          !- Field 1
    For: Weekdays SummerDesignDay,  !- Field 2
    Until: 08:00,            !- Field 3
    0.00,                    !- Field 4
    Until: 15:00,            !- Field 5
    0.30,                    !- Field 6
    Until: 16:00,            !- Field 7
    0.15,                    !- Field 8
    Until: 24:00,            !- Field 9
    0.00,                    !- Field 10
    For: AllOtherDays,       !- Field 11
    Until: 24:00,            !- Field 12
    0.00;                    !- Field 13

Schedule:Compact,
    8_BLDG_EQUIP_SCH,        !- Name
    Fraction,                !- Schedule Type Limits Name
    Through: 6/30,           !- Field 1
    For: Weekdays SummerDesignDay,  !- Field 2
    Until: 08:00,            !- Field 3
    0.35,                    !- Field 4
    Until: 17:00,            !- Field 5
    0.95,                    !- Field 6
    Until: 24:00,            !- Field 7
    0.35,                    !- Field 8
    For: AllOtherDays,       !- Field 9
    Until: 24:00,            !- Field 10
    0.35,                    !- Field 11
    Through: 9/1,            !- Field 12
    For: Weekdays SummerDesignDay,  !- Field 13
    Until: 08:00,            !- Field 14
    0.25,                    !- Field 15
    Until: 17:00,            !- Field 16
    0.5,                     !- Field 17
    Until: 24:00,            !- Field 18
    0.25,                    !- Field 19
    For: AllOtherDays,       !- Field 20
    Until: 24:00,            !- Field 21
    0.25,                    !- Field 22
    Through: 12/31,          !- Field 23
    For: Weekdays SummerDesignDay,  !- Field 24
    Until: 08:00,            !- Field 25
    0.35,                    !- Field 26
    Until: 17:00,            !- Field 27
    0.95,                    !- Field 28
    Until: 24:00,            !- Field 29
    0.35,                    !- Field 30
    For: AllOtherDays,       !- Field 31
    Until: 24:00,            !- Field 32
    0.35;                    !- Field 33

Schedule:Compact,
    8_BLDG_LIGHT_SCH,        !- Name
    Fraction,                !- Schedule Type Limits Name
    Through: 6/30,           !- Field 1
    For: Weekdays SummerDesignDay,  !- Field 2
    Until: 07:00,            !- Field 3
    0.1773,                  !- Field 4
    Until: 21:00,            !- Field 5
    0.9,                     !- Field 6
    Until: 24:00,            !- Field 7
    0.1773,                  !- Field 8
    For: AllOtherDays,       !- Field 9
    Until: 24:00,            !- Field 10
    0.1773,                  !- Field 11
    Through: 9/1,            !- Field 12
    For: Weekdays SummerDesignDay,  !- Field 13
    Until: 08:00,            !- Field 14
    0.1773,                  !- Field 15
    Until: 20:00,            !- Field 16
    0.5,                     !- Field 17
    Until: 24:00,            !- Field 18
    0.1773,                  !- Field 19
    For: AllOtherDays,       !- Field 20
    Until: 24:00,            !- Field 21
    0.1773,                  !- Field 22
    Through: 12/31,          !- Field 23
    For: Weekdays SummerDesignDay,  !- Field 24
    Until: 07:00,            !- Field 25
    0.1773,                  !- Field 26
    Until: 21:00,            !- Field 27
    0.9,                     !- Field 28
    Until: 24:00,            !- Field 29
    0.1773,                  !- Field 30
    For: AllOtherDays,       !- Field 31
    Until: 24:00,            !- Field 32
    0.1773;                  !- Field 33

Schedule:Compact,
    8_BLDG_OCC_SCH,          !- Name
    Fraction,                !- Schedule Type Limits Name
    Through: 6/30,           !- Field 1
    For: Weekdays SummerDesignDay,  !- Field 2
    Until: 08:00,            !- Field 3
    0,                       !- Field 4
    Until: 16:00,            !- Field 5
    0.70,                    !- Field 6
    Until: 21:00,            !- Field 7
    0.15,                    !- Field 8
    Until: 24:00,            !- Field 9
    0,                       !- Field 10
    For: AllOtherDays,       !- Field 11
    Until: 24:00,            !- Field 12
    0,                       !- Field 13
    Through: 9/1,            !- Field 14
    For: Weekdays SummerDesignDay,  !- Field 15
    Until: 08:00,            !- Field 16
    0,                       !- Field 17
    Until: 21:00,            !- Field 18
    0.15,                    !- Field 19
    Until: 24:00,            !- Field 20
    0,                       !- Field 21
    For: AllOtherDays,       !- Field 22
    Until: 24:00,            !- Field 23
    0,                       !- Field 24
    Through: 12/31,          !- Field 25
    For: Weekdays SummerDesignDay,  !- Field 26
    Until: 08:00,            !- Field 27
    0,                       !- Field 28
    Until: 16:00,            !- Field 29
    0.70,                    !- Field 30
    Until: 21:00,            !- Field 31
    0.15,                    !- Field 32
    Until: 24:00,            !- Field 33
    0,                       !- Field 34
    For: AllOtherDays,       !- Field 35
    Until: 24:00,            !- Field 36
    0;                       !- Field 37

Schedule:Compact,
    8_BLDG_OCC_SCH_Auditorium,  !- Name
    Fraction,                !- Schedule Type Limits Name
    Through: 6/30,           !- Field 1
    For: Weekdays SummerDesignDay,  !- Field 2
    Until: 08:00,            !- Field 3
    0,                       !- Field 4
    Until: 15:00,            !- Field 5
    0.25,                    !- Field 6
    Until: 17:00,            !- Field 7
    0.95,                    !- Field 8
    Until: 20:00,            !- Field 9
    0.10,                    !- Field 10
    Until: 24:00,            !- Field 11
    0,                       !- Field 12
    For: AllOtherDays,       !- Field 13
    Until: 24:00,            !- Field 14
    0,                       !- Field 15
    Through: 9/1,            !- Field 16
    For: Weekdays SummerDesignDay,  !- Field 17
    Until: 08:00,            !- Field 18
    0,                       !- Field 19
    Until: 17:00,            !- Field 20
    0.15,                    !- Field 21
    Until: 19:00,            !- Field 22
    0.35,                    !- Field 23
    Until: 24:00,            !- Field 24
    0,                       !- Field 25
    For: AllOtherDays,       !- Field 26
    Until: 24:00,            !- Field 27
    0,                       !- Field 28
    Through: 12/31,          !- Field 29
    For: Weekdays SummerDesignDay,  !- Field 30
    Until: 08:00,            !- Field 31
    0,                       !- Field 32
    Until: 15:00,            !- Field 33
    0.25,                    !- Field 34
    Until: 17:00,            !- Field 35
    0.95,                    !- Field 36
    Until: 20:00,            !- Field 37
    0.10,                    !- Field 38
    Until: 24:00,            !- Field 39
    0,                       !- Field 40
    For: AllOtherDays,       !- Field 41
    Until: 24:00,            !- Field 42
    0;                       !- Field 43

Schedule:Compact,
    8_BLDG_OCC_SCH_Cafeteria,!- Name
    Fraction,                !- Schedule Type Limits Name
    Through: 6/30,           !- Field 1
    For: Weekdays SummerDesignDay,  !- Field 2
    Until: 07:00,            !- Field 3
    0,                       !- Field 4
    Until: 09:00,            !- Field 5
    0.15,                    !- Field 6
    Until: 11:00,            !- Field 7
    0.05,                    !- Field 8
    Until: 13:00,            !- Field 9
    0.95,                    !- Field 10
    Until: 15:00,            !- Field 11
    0.15,                    !- Field 12
    Until: 24:00,            !- Field 13
    0,                       !- Field 14
    For: AllOtherDays,       !- Field 15
    Until: 24:00,            !- Field 16
    0,                       !- Field 17
    Through: 9/1,            !- Field 18
    For: Weekdays SummerDesignDay,  !- Field 19
    Until: 09:00,            !- Field 20
    0,                       !- Field 21
    Until: 15:00,            !- Field 22
    0.25,                    !- Field 23
    Until: 24:00,            !- Field 24
    0,                       !- Field 25
    For: AllOtherDays,       !- Field 26
    Until: 24:00,            !- Field 27
    0,                       !- Field 28
    Through: 12/31,          !- Field 29
    For: Weekdays SummerDesignDay,  !- Field 30
    Until: 07:00,            !- Field 31
    0,                       !- Field 32
    Until: 09:00,            !- Field 33
    0.15,                    !- Field 34
    Until: 11:00,            !- Field 35
    0.05,                    !- Field 36
    Until: 13:00,            !- Field 37
    0.95,                    !- Field 38
    Until: 15:00,            !- Field 39
    0.15,                    !- Field 40
    Until: 24:00,            !- Field 41
    0,                       !- Field 42
    For: AllOtherDays,       !- Field 43
    Until: 24:00,            !- Field 44
    0;                       !- Field 45

Schedule:Compact,
    8_BLDG_OCC_SCH_Extend,   !- Name
    Fraction,                !- Schedule Type Limits Name
    Through: 6/30,           !- Field 1
    For: Weekdays SummerDesignDay,  !- Field 2
    Until: 08:00,            !- Field 3
    0,                       !- Field 4
    Until: 16:00,            !- Field 5
    0.70,                    !- Field 6
    Until: 21:00,            !- Field 7
    0.70,                    !- Field 8
    Until: 24:00,            !- Field 9
    0,                       !- Field 10
    For: AllOtherDays,       !- Field 11
    Until: 24:00,            !- Field 12
    0,                       !- Field 13
    Through: 9/1,            !- Field 14
    For: Weekdays SummerDesignDay,  !- Field 15
    Until: 08:00,            !- Field 16
    0,                       !- Field 17
    Until: 17:00,            !- Field 18
    0.5,                     !- Field 19
    Until: 21:00,            !- Field 20
    0.5,                     !- Field 21
    Until: 24:00,            !- Field 22
    0,                       !- Field 23
    For: AllOtherDays,       !- Field 24
    Until: 24:00,            !- Field 25
    0,                       !- Field 26
    Through: 12/31,          !- Field 27
    For: Weekdays SummerDesignDay,  !- Field 28
    Until: 08:00,            !- Field 29
    0,                       !- Field 30
    Until: 17:00,            !- Field 31
    0.70,                    !- Field 32
    Until: 21:00,            !- Field 33
    0.70,                    !- Field 34
    Until: 24:00,            !- Field 35
    0,                       !- Field 36
    For: AllOtherDays,       !- Field 37
    Until: 24:00,            !- Field 38
    0;                       !- Field 39

Schedule:Compact,
    8_BLDG_OCC_SCH_Gym,      !- Name
    Fraction,                !- Schedule Type Limits Name
    Through: 6/30,           !- Field 1
    For: Weekdays SummerDesignDay,  !- Field 2
    Until: 08:00,            !- Field 3
    0,                       !- Field 4
    Until: 16:00,            !- Field 5
    0.35,                    !- Field 6
    Until: 21:00,            !- Field 7
    0.95,                    !- Field 8
    Until: 24:00,            !- Field 9
    0,                       !- Field 10
    For: AllOtherDays,       !- Field 11
    Until: 24:00,            !- Field 12
    0,                       !- Field 13
    Through: 9/1,            !- Field 14
    For: Weekdays SummerDesignDay,  !- Field 15
    Until: 08:00,            !- Field 16
    0,                       !- Field 17
    Until: 16:00,            !- Field 18
    0.35,                    !- Field 19
    Until: 21:00,            !- Field 20
    0.35,                    !- Field 21
    Until: 24:00,            !- Field 22
    0,                       !- Field 23
    For: AllOtherDays,       !- Field 24
    Until: 24:00,            !- Field 25
    0,                       !- Field 26
    Through: 12/31,          !- Field 27
    For: Weekdays SummerDesignDay,  !- Field 28
    Until: 08:00,            !- Field 29
    0,                       !- Field 30
    Until: 16:00,            !- Field 31
    0.35,                    !- Field 32
    Until: 21:00,            !- Field 33
    0.95,                    !- Field 34
    Until: 24:00,            !- Field 35